data_1-TOPOS_ABW-PPT1
_audit_creation_date                2025-02-23
_audit_creation_method              ToposPro
_chemical_formula_structural        ABW-PPT1
_chemical_formula_sum               'Lr1 O4 Si2'
_citation_special_details
;
Space Group: IMMA->I m m a. File: ABW-PPT1.cif. 
;
_cell_length_a                      9.873
_cell_length_b                      5.254
_cell_length_c                      8.77
_cell_angle_alpha                   90
_cell_angle_beta                    90
_cell_angle_gamma                   90
_cell_volume                        454.924
_cell_formula_units_Z               4
_symmetry_space_group_name_H-M      'I m m a'
_symmetry_Int_Tables_number         74
_refine_ls_R_factor_all             0
loop_
_symmetry_equiv_pos_site_id
_symmetry_equiv_pos_as_xyz
1 x,y,z
2 -x,1/2-y,z
3 x,-y,-z
4 -x,1/2+y,-z
5 -x,-y,-z
6 x,1/2+y,-z
7 -x,y,z
8 x,1/2-y,z
9 1/2+x,1/2+y,1/2+z
10 1/2-x,-y,1/2+z
11 1/2+x,1/2-y,1/2-z
12 1/2-x,y,1/2-z
13 1/2-x,1/2-y,1/2-z
14 1/2+x,y,1/2-z
15 1/2-x,1/2+y,1/2+z
16 1/2+x,-y,1/2+z
loop_
_atom_site_label
_atom_site_type_symbol
_atom_site_symmetry_multiplicity
_atom_site_fract_x
_atom_site_fract_y
_atom_site_fract_z
_atom_site_occupancy
O1 O 4 0.50000 0.75000 0.35230 1.0000
O2 O 8 0.31000 0.50000 0.50000 1.0000
O3 O 4 0.25000 0.75000 0.25000 1.0000
Si1 Si 8 0.34280 0.75000 0.40070 1.0000
Lr1 Lr 4 0.50000 0.75000 0.84296 1.0000
loop_
_topos_bond_atom_site_label_1
_topos_bond_atom_site_label_2
_topos_bond_site_symmetry_1
_topos_bond_site_symmetry_2
_topos_bond_distance
_topos_bond_type
_topos_bond_multiplicity
O1 Si1 1_0_0_0 1_0_0_0 1.6090 V 8
O2 Si1 1_0_0_0 1_0_0_0 1.6090 V 16
O3 Si1 1_0_0_0 1_0_0_0 1.6080 V 8
Lr1 Lr1 1_0_0_0 3_0_2_2 3.8060 V 4
#End of data_1-TOPOS_ABW-PPT1

data_2-TOPOS_ACO-PPT1
_audit_creation_date                2025-02-23
_audit_creation_method              ToposPro
_chemical_formula_structural        ACO-PPT1
_chemical_formula_sum               'Lr1 O4 Si2'
_citation_special_details
;
Space Group: IM-3M->I m -3 m. File: ACO-PPT1.cif. 
;
_cell_length_a                      9.905
_cell_length_b                      9.905
_cell_length_c                      9.905
_cell_angle_alpha                   90
_cell_angle_beta                    90
_cell_angle_gamma                   90
_cell_volume                        971.7698
_cell_formula_units_Z               8
_symmetry_space_group_name_H-M      'I m -3 m'
_symmetry_Int_Tables_number         229
_refine_ls_R_factor_all             0
loop_
_symmetry_equiv_pos_site_id
_symmetry_equiv_pos_as_xyz
1 x,y,z
2 -x,-y,z
3 x,-y,-z
4 -x,y,-z
5 z,x,y
6 y,z,x
7 -z,-x,y
8 -y,z,-x
9 z,-x,-y
10 -y,-z,x
11 -z,x,-y
12 y,-z,-x
13 -y,-x,-z
14 y,x,-z
15 y,-x,z
16 -y,x,z
17 -x,-z,-y
18 -z,-y,-x
19 x,z,-y
20 -z,y,x
21 x,-z,y
22 z,y,-x
23 -x,z,y
24 z,-y,x
25 -x,-y,-z
26 x,y,-z
27 -x,y,z
28 x,-y,z
29 -z,-x,-y
30 -y,-z,-x
31 z,x,-y
32 y,-z,x
33 -z,x,y
34 y,z,-x
35 z,-x,y
36 -y,z,x
37 y,x,z
38 -y,-x,z
39 -y,x,-z
40 y,-x,-z
41 x,z,y
42 z,y,x
43 -x,-z,y
44 z,-y,-x
45 -x,z,-y
46 -z,-y,x
47 x,-z,-y
48 -z,y,-x
49 1/2+x,1/2+y,1/2+z
50 1/2-x,1/2-y,1/2+z
51 1/2+x,1/2-y,1/2-z
52 1/2-x,1/2+y,1/2-z
53 1/2+z,1/2+x,1/2+y
54 1/2+y,1/2+z,1/2+x
55 1/2-z,1/2-x,1/2+y
56 1/2-y,1/2+z,1/2-x
57 1/2+z,1/2-x,1/2-y
58 1/2-y,1/2-z,1/2+x
59 1/2-z,1/2+x,1/2-y
60 1/2+y,1/2-z,1/2-x
61 1/2-y,1/2-x,1/2-z
62 1/2+y,1/2+x,1/2-z
63 1/2+y,1/2-x,1/2+z
64 1/2-y,1/2+x,1/2+z
65 1/2-x,1/2-z,1/2-y
66 1/2-z,1/2-y,1/2-x
67 1/2+x,1/2+z,1/2-y
68 1/2-z,1/2+y,1/2+x
69 1/2+x,1/2-z,1/2+y
70 1/2+z,1/2+y,1/2-x
71 1/2-x,1/2+z,1/2+y
72 1/2+z,1/2-y,1/2+x
73 1/2-x,1/2-y,1/2-z
74 1/2+x,1/2+y,1/2-z
75 1/2-x,1/2+y,1/2+z
76 1/2+x,1/2-y,1/2+z
77 1/2-z,1/2-x,1/2-y
78 1/2-y,1/2-z,1/2-x
79 1/2+z,1/2+x,1/2-y
80 1/2+y,1/2-z,1/2+x
81 1/2-z,1/2+x,1/2+y
82 1/2+y,1/2+z,1/2-x
83 1/2+z,1/2-x,1/2+y
84 1/2-y,1/2+z,1/2+x
85 1/2+y,1/2+x,1/2+z
86 1/2-y,1/2-x,1/2+z
87 1/2-y,1/2+x,1/2-z
88 1/2+y,1/2-x,1/2-z
89 1/2+x,1/2+z,1/2+y
90 1/2+z,1/2+y,1/2+x
91 1/2-x,1/2-z,1/2+y
92 1/2+z,1/2-y,1/2-x
93 1/2-x,1/2+z,1/2-y
94 1/2-z,1/2-y,1/2+x
95 1/2+x,1/2-z,1/2-y
96 1/2-z,1/2+y,1/2-x
loop_
_atom_site_label
_atom_site_type_symbol
_atom_site_symmetry_multiplicity
_atom_site_fract_x
_atom_site_fract_y
_atom_site_fract_z
_atom_site_occupancy
O1 O 8 0.25000 0.25000 0.25000 1.0000
O2 O 24 0.18770 0.18770 0.00000 1.0000
Si1 Si 16 0.15640 0.15640 0.15640 1.0000
Lr1 Lr 6 0.00000 0.00000 0.50000 1.0000
Lr2 Lr 2 0.00000 0.00000 0.00000 1.0000
loop_
_topos_bond_atom_site_label_1
_topos_bond_atom_site_label_2
_topos_bond_site_symmetry_1
_topos_bond_site_symmetry_2
_topos_bond_distance
_topos_bond_type
_topos_bond_multiplicity
O1 Si1 1_0_0_0 1_0_0_0 1.6060 V 16
O2 Si1 1_0_0_0 1_0_0_0 1.6100 V 48
Lr1 Lr1 1_0_0_0 53_-1_-1_0 4.9530 V 12
#End of data_2-TOPOS_ACO-PPT1

data_3-TOPOS_AEI-PPT1
_audit_creation_date                2025-02-23
_audit_creation_method              ToposPro
_chemical_formula_structural        AEI-PPT1
_chemical_formula_sum               'Lr1 O12 Si6'
_citation_special_details
;
Space Group: CMCM->C m c m. File: AEI-PPT1.cif. 
;
_cell_length_a                      13.677
_cell_length_b                      12.607
_cell_length_c                      18.497
_cell_angle_alpha                   90
_cell_angle_beta                    90
_cell_angle_gamma                   90
_cell_volume                        3189.363
_cell_formula_units_Z               8
_symmetry_space_group_name_H-M      'C m c m'
_symmetry_Int_Tables_number         63
_refine_ls_R_factor_all             0
loop_
_symmetry_equiv_pos_site_id
_symmetry_equiv_pos_as_xyz
1 x,y,z
2 -x,-y,1/2+z
3 x,-y,-z
4 -x,y,1/2-z
5 -x,-y,-z
6 x,y,1/2-z
7 -x,y,z
8 x,-y,1/2+z
9 1/2+x,1/2+y,z
10 1/2-x,1/2-y,1/2+z
11 1/2+x,1/2-y,-z
12 1/2-x,1/2+y,1/2-z
13 1/2-x,1/2-y,-z
14 1/2+x,1/2+y,1/2-z
15 1/2-x,1/2+y,z
16 1/2+x,1/2-y,1/2+z
loop_
_atom_site_label
_atom_site_type_symbol
_atom_site_symmetry_multiplicity
_atom_site_fract_x
_atom_site_fract_y
_atom_site_fract_z
_atom_site_occupancy
O1 O 16 0.12520 0.15150 0.62930 1.0000
O2 O 16 0.18040 0.95170 0.62530 1.0000
O3 O 16 0.14650 0.83220 0.51160 1.0000
O4 O 16 0.17940 0.66720 0.42810 1.0000
O5 O 8 0.00000 0.00040 0.66140 1.0000
O6 O 8 0.00000 0.73640 0.44680 1.0000
O7 O 8 0.14490 0.04380 0.75000 1.0000
O8 O 8 0.74040 0.00000 0.50000 1.0000
Si1 Si 16 0.11260 0.03690 0.66640 1.0000
Si2 Si 16 0.11280 0.77110 0.43940 1.0000
Si3 Si 16 0.77330 0.90420 0.55210 1.0000
Lr1 Lr 4 0.00000 0.58264 0.75000 1.0000
Lr2 Lr 4 0.00000 0.00000 0.50000 1.0000
loop_
_topos_bond_atom_site_label_1
_topos_bond_atom_site_label_2
_topos_bond_site_symmetry_1
_topos_bond_site_symmetry_2
_topos_bond_distance
_topos_bond_type
_topos_bond_multiplicity
O1 Si1 1_0_0_0 1_0_0_0 1.6090 V 16
O1 Si2 1_0_0_0 3_0_1_1 1.6110 V 16
O2 Si1 1_0_0_0 1_0_1_0 1.6100 V 16
O2 Si3 1_0_0_0 7_1_0_0 1.6100 V 16
O3 Si2 1_0_0_0 1_0_0_0 1.6090 V 16
O3 Si3 1_0_0_0 7_1_0_0 1.6090 V 16
O4 Si2 1_0_0_0 1_0_0_0 1.6090 V 16
O4 Si3 1_0_0_0 11_-1_1_1 1.6110 V 16
O5 Si1 1_0_0_0 1_0_0_0 1.6100 V 16
O6 Si2 1_0_0_0 1_0_0_0 1.6090 V 16
O7 Si1 1_0_0_0 1_0_0_0 1.6110 V 16
O8 Si3 1_0_0_0 1_0_-1_0 1.6090 V 16
Lr1 Lr1 1_0_0_0 9_-1_-1_0 9.3000 V 8
Lr1 Lr1 1_0_0_0 2_0_1_0 9.4800 V 4
#End of data_3-TOPOS_AEI-PPT1

data_4-TOPOS_AEL-PPT1
_audit_creation_date                2025-02-23
_audit_creation_method              ToposPro
_chemical_formula_structural        AEL-PPT1
_chemical_formula_sum               'Lr1 O2 Si1'
_citation_special_details
;
Space Group: IMMA->I m m a. File: AEL-PPT1.cif. 
;
_cell_length_a                      8.312
_cell_length_b                      18.729
_cell_length_c                      13.392
_cell_angle_alpha                   90
_cell_angle_beta                    90
_cell_angle_gamma                   90
_cell_volume                        2084.806
_cell_formula_units_Z               40
_symmetry_space_group_name_H-M      'I m m a'
_symmetry_Int_Tables_number         74
_refine_ls_R_factor_all             0
loop_
_symmetry_equiv_pos_site_id
_symmetry_equiv_pos_as_xyz
1 x,y,z
2 -x,1/2-y,z
3 x,-y,-z
4 -x,1/2+y,-z
5 -x,-y,-z
6 x,1/2+y,-z
7 -x,y,z
8 x,1/2-y,z
9 1/2+x,1/2+y,1/2+z
10 1/2-x,-y,1/2+z
11 1/2+x,1/2-y,1/2-z
12 1/2-x,y,1/2-z
13 1/2-x,1/2-y,1/2-z
14 1/2+x,y,1/2-z
15 1/2-x,1/2+y,1/2+z
16 1/2+x,-y,1/2+z
loop_
_atom_site_label
_atom_site_type_symbol
_atom_site_symmetry_multiplicity
_atom_site_fract_x
_atom_site_fract_y
_atom_site_fract_z
_atom_site_occupancy
O1 O 16 0.29560 0.95470 0.62450 1.0000
O2 O 16 0.20900 0.08080 0.55760 1.0000
O3 O 16 0.76150 0.17990 0.41980 1.0000
O4 O 8 0.25000 0.06090 0.75000 1.0000
O5 O 8 0.50000 0.06190 0.62970 1.0000
O6 O 8 0.00000 0.08800 0.41050 1.0000
O7 O 4 0.25000 0.25000 0.25000 1.0000
O8 O 4 0.50000 0.25000 0.37030 1.0000
Si1 Si 16 0.31380 0.03950 0.64060 1.0000
Si2 Si 16 0.81410 0.09860 0.44080 1.0000
Si3 Si 8 0.30680 0.25000 0.36470 1.0000
Lr1 Lr 8 0.50000 0.01975 0.87500 1.0000
Lr2 Lr 8 0.50000 0.89697 0.75000 1.0000
Lr3 Lr 8 0.50000 0.08715 0.45137 1.0000
Lr4 Lr 4 0.50000 0.25000 0.75000 1.0000
Lr5 Lr 4 0.00000 0.00000 0.50000 1.0000
Lr6 Lr 4 0.50000 0.00000 0.50000 1.0000
Lr7 Lr 4 0.00000 0.25000 0.34540 1.0000
loop_
_topos_bond_atom_site_label_1
_topos_bond_atom_site_label_2
_topos_bond_site_symmetry_1
_topos_bond_site_symmetry_2
_topos_bond_distance
_topos_bond_type
_topos_bond_multiplicity
O1 Si1 1_0_0_0 1_0_1_0 1.6100 V 16
O1 Si2 1_0_0_0 5_1_1_1 1.6100 V 16
O2 Si1 1_0_0_0 1_0_0_0 1.6100 V 16
O2 Si2 1_0_0_0 7_1_0_0 1.6110 V 16
O3 Si2 1_0_0_0 1_0_0_0 1.6090 V 16
O3 Si3 1_0_0_0 2_1_0_0 1.6100 V 16
O4 Si1 1_0_0_0 1_0_0_0 1.6090 V 16
O5 Si1 1_0_0_0 1_0_0_0 1.6100 V 16
O6 Si2 1_0_0_0 1_-1_0_0 1.6100 V 16
O7 Si3 1_0_0_0 1_0_0_0 1.6070 V 8
O8 Si3 1_0_0_0 1_0_0_0 1.6080 V 8
Lr1 Lr5 1_0_0_0 10_0_0_0 1.7140 V 8
Lr1 Lr2 1_0_0_0 1_0_-1_0 2.8440 V 8
Lr2 Lr3 1_0_0_0 3_0_1_1 2.7130 V 8
Lr3 Lr6 1_0_0_0 1_0_0_0 1.7570 V 8
Lr4 Lr4 1_0_0_0 11_-1_0_1 4.1560 V 4
#End of data_4-TOPOS_AEL-PPT1

data_5-TOPOS_AEN-PPT1
_audit_creation_date                2025-02-23
_audit_creation_method              ToposPro
_chemical_formula_structural        AEN-PPT1
_chemical_formula_sum               'Lr7 O12 Si6'
_citation_special_details
;
Space Group: CMCA->C m c a. File: AEN-PPT1.cif. 
;
_cell_length_a                      18.531
_cell_length_b                      13.355
_cell_length_c                      9.636
_cell_angle_alpha                   90
_cell_angle_beta                    90
_cell_angle_gamma                   90
_cell_volume                        2384.732
_cell_formula_units_Z               8
_symmetry_space_group_name_H-M      'C m c a'
_symmetry_Int_Tables_number         64
_refine_ls_R_factor_all             0
loop_
_symmetry_equiv_pos_site_id
_symmetry_equiv_pos_as_xyz
1 x,y,z
2 1/2-x,-y,1/2+z
3 x,-y,-z
4 1/2-x,y,1/2-z
5 -x,-y,-z
6 1/2+x,y,1/2-z
7 -x,y,z
8 1/2+x,-y,1/2+z
9 1/2+x,1/2+y,z
10 -x,1/2-y,1/2+z
11 1/2+x,1/2-y,-z
12 -x,1/2+y,1/2-z
13 1/2-x,1/2-y,-z
14 x,1/2+y,1/2-z
15 1/2-x,1/2+y,z
16 x,1/2-y,1/2+z
loop_
_atom_site_label
_atom_site_type_symbol
_atom_site_symmetry_multiplicity
_atom_site_fract_x
_atom_site_fract_y
_atom_site_fract_z
_atom_site_occupancy
O1 O 16 0.11020 0.02300 0.72740 1.0000
O2 O 16 0.12920 0.17580 0.89510 1.0000
O3 O 16 0.17650 0.14670 0.31760 1.0000
O4 O 8 0.10000 0.00000 0.00000 1.0000
O5 O 8 0.00000 0.09900 0.86300 1.0000
O6 O 8 0.25000 0.98730 0.25000 1.0000
O7 O 8 0.18940 0.00000 0.50000 1.0000
O8 O 8 0.25000 0.25000 0.50000 1.0000
O9 O 8 0.25000 0.18970 0.75000 1.0000
Si1 Si 16 0.08470 0.07360 0.87120 1.0000
Si2 Si 16 0.18170 0.02710 0.33800 1.0000
Si3 Si 16 0.30040 0.24240 0.63490 1.0000
Lr1 Lr 16 0.19557 0.11597 0.12359 1.0000
Lr2 Lr 16 0.20867 0.06250 0.00000 1.0000
Lr3 Lr 16 0.26484 0.10781 0.84961 1.0000
Lr4 Lr 8 0.00000 0.27847 0.07031 1.0000
loop_
_topos_bond_atom_site_label_1
_topos_bond_atom_site_label_2
_topos_bond_site_symmetry_1
_topos_bond_site_symmetry_2
_topos_bond_distance
_topos_bond_type
_topos_bond_multiplicity
O1 Si1 1_0_0_0 1_0_0_0 1.6120 V 16
O1 Si2 1_0_0_0 3_0_0_1 1.6130 V 16
O2 Si1 1_0_0_0 1_0_0_0 1.6110 V 16
O2 Si3 1_0_0_0 4_0_0_1 1.6050 V 16
O3 Si2 1_0_0_0 1_0_0_0 1.6120 V 16
O3 Si3 1_0_0_0 13_0_0_1 1.6080 V 16
O4 Si1 1_0_0_0 1_0_0_-1 1.6080 V 16
O5 Si1 1_0_0_0 1_0_0_0 1.6080 V 16
O6 Si2 1_0_0_0 1_0_1_0 1.6140 V 16
O7 Si2 1_0_0_0 1_0_0_0 1.6090 V 16
O8 Si3 1_0_0_0 1_0_0_0 1.6040 V 16
O9 Si3 1_0_0_0 1_0_0_0 1.6120 V 16
Lr1 Lr2 1_0_0_0 1_0_0_0 1.4100 V 16
Lr2 Lr3 1_0_0_0 1_0_0_-1 1.8840 V 16
Lr2 Lr2 1_0_0_0 3_0_0_0 1.6690 V 8
Lr3 Lr3 1_0_0_0 4_0_0_1 1.9970 V 8
Lr4 Lr4 1_0_0_0 3_0_1_0 6.0700 V 4
Lr4 Lr4 1_0_0_0 10_0_0_-1 4.8780 V 8
#End of data_5-TOPOS_AEN-PPT1

data_6-TOPOS_AET-PPT1
_audit_creation_date                2025-02-23
_audit_creation_method              ToposPro
_chemical_formula_structural        AET-PPT1
_chemical_formula_sum               'Lr1 O2 Si1'
_citation_special_details
;
Space Group: CMCM->C m c m. File: AET-PPT1.cif. 
;
_cell_length_a                      32.829
_cell_length_b                      14.38
_cell_length_c                      8.374
_cell_angle_alpha                   90
_cell_angle_beta                    90
_cell_angle_gamma                   90
_cell_volume                        3953.206
_cell_formula_units_Z               72
_symmetry_space_group_name_H-M      'C m c m'
_symmetry_Int_Tables_number         63
_refine_ls_R_factor_all             0
loop_
_symmetry_equiv_pos_site_id
_symmetry_equiv_pos_as_xyz
1 x,y,z
2 -x,-y,1/2+z
3 x,-y,-z
4 -x,y,1/2-z
5 -x,-y,-z
6 x,y,1/2-z
7 -x,y,z
8 x,-y,1/2+z
9 1/2+x,1/2+y,z
10 1/2-x,1/2-y,1/2+z
11 1/2+x,1/2-y,-z
12 1/2-x,1/2+y,1/2-z
13 1/2-x,1/2-y,-z
14 1/2+x,1/2+y,1/2-z
15 1/2-x,1/2+y,z
16 1/2+x,1/2-y,1/2+z
loop_
_atom_site_label
_atom_site_type_symbol
_atom_site_symmetry_multiplicity
_atom_site_fract_x
_atom_site_fract_y
_atom_site_fract_z
_atom_site_occupancy
O1 O 16 0.04020 0.15640 0.51110 1.0000
O2 O 16 0.11970 0.16030 0.47600 1.0000
O3 O 16 0.27300 0.12080 0.53760 1.0000
O4 O 16 0.19940 0.17830 0.46410 1.0000
O5 O 16 0.15420 0.32120 0.54540 1.0000
O6 O 8 0.08800 0.10950 0.75000 1.0000
O7 O 8 0.21410 0.11070 0.75000 1.0000
O8 O 8 0.19910 0.41510 0.75000 1.0000
O9 O 8 0.08160 0.00000 0.50000 1.0000
O10 O 8 0.21360 0.00000 0.50000 1.0000
O11 O 8 0.16800 0.50000 0.50000 1.0000
O12 O 8 0.15340 0.26090 0.25000 1.0000
O13 O 4 0.00000 0.88880 0.75000 1.0000
O14 O 4 0.00000 0.00000 0.50000 1.0000
Si1 Si 16 0.08240 0.10640 0.55930 1.0000
Si2 Si 16 0.22510 0.10230 0.56330 1.0000
Si3 Si 16 0.18690 0.40380 0.56490 1.0000
Si4 Si 16 0.15660 0.22990 0.06570 1.0000
Si5 Si 8 0.00000 0.89350 0.55830 1.0000
Lr1 Lr 8 0.26910 0.00000 0.75000 1.0000
Lr2 Lr 8 0.08035 0.91590 0.75000 1.0000
Lr3 Lr 8 0.15470 0.00000 0.75000 1.0000
Lr4 Lr 8 0.16275 0.21060 0.75000 1.0000
Lr5 Lr 8 0.22998 0.91848 0.75000 1.0000
Lr6 Lr 8 0.25000 0.25000 0.75000 1.0000
Lr7 Lr 8 0.29868 0.09310 0.75000 1.0000
Lr8 Lr 8 0.04120 0.00000 0.25000 1.0000
Lr9 Lr 4 0.00000 0.50000 0.75000 1.0000
Lr10 Lr 4 0.00000 0.05320 0.75000 1.0000
loop_
_topos_bond_atom_site_label_1
_topos_bond_atom_site_label_2
_topos_bond_site_symmetry_1
_topos_bond_site_symmetry_2
_topos_bond_distance
_topos_bond_type
_topos_bond_multiplicity
O1 Si1 1_0_0_0 1_0_0_0 1.6120 V 16
O1 Si5 1_0_0_0 3_0_1_1 1.6110 V 16
O2 Si1 1_0_0_0 1_0_0_0 1.6080 V 16
O2 Si4 1_0_0_0 6_0_0_0 1.6100 V 16
O3 Si2 1_0_0_0 1_0_0_0 1.6090 V 16
O3 Si3 1_0_0_0 13_0_0_1 1.6110 V 16
O4 Si2 1_0_0_0 1_0_0_0 1.6110 V 16
O4 Si4 1_0_0_0 6_0_0_0 1.6080 V 16
O5 Si3 1_0_0_0 1_0_0_0 1.6090 V 16
O5 Si4 1_0_0_0 6_0_0_0 1.6110 V 16
O6 Si1 1_0_0_0 1_0_0_0 1.6080 V 16
O7 Si2 1_0_0_0 1_0_0_0 1.6090 V 16
O8 Si3 1_0_0_0 1_0_0_0 1.6090 V 16
O9 Si1 1_0_0_0 1_0_0_0 1.6090 V 16
O10 Si2 1_0_0_0 1_0_0_0 1.6090 V 16
O11 Si3 1_0_0_0 1_0_0_0 1.6110 V 16
O12 Si4 1_0_0_0 1_0_0_0 1.6100 V 16
O13 Si5 1_0_0_0 1_0_0_0 1.6070 V 8
O14 Si5 1_0_0_0 1_0_-1_0 1.6070 V 8
Lr1 Lr7 1_0_0_0 1_0_0_0 1.6540 V 8
Lr1 Lr5 1_0_0_0 1_0_-1_0 1.7390 V 8
Lr2 Lr8 1_0_0_0 3_0_1_1 1.7650 V 8
Lr2 Lr3 1_0_0_0 1_0_1_0 2.7240 V 8
Lr3 Lr5 1_0_0_0 1_0_-1_0 2.7350 V 8
Lr4 Lr6 1_0_0_0 1_0_0_0 2.9200 V 8
Lr5 Lr6 1_0_0_0 12_0_0_1 2.5100 V 8
Lr6 Lr7 1_0_0_0 1_0_0_0 2.7650 V 8
Lr8 Lr10 1_0_0_0 2_0_0_-1 1.5540 V 8
Lr9 Lr9 1_0_0_0 2_0_1_-1 4.1870 V 4
#End of data_6-TOPOS_AET-PPT1

data_7-TOPOS_AFG-PPT1
_audit_creation_date                2025-02-23
_audit_creation_method              ToposPro
_chemical_formula_structural        AFG-PPT1
_chemical_formula_sum               'Lr1 O12 Si6'
_citation_special_details
;
Space Group: P63/MMC->P 63/m m c. File: AFG-PPT1.cif. 
;
_cell_length_a                      12.548
_cell_length_b                      12.548
_cell_length_c                      20.789
_cell_angle_alpha                   90
_cell_angle_beta                    90
_cell_angle_gamma                   120
_cell_volume                        2834.74
_cell_formula_units_Z               8
_symmetry_space_group_name_H-M      'P 63/m m c'
_symmetry_Int_Tables_number         194
_refine_ls_R_factor_all             0
loop_
_symmetry_equiv_pos_site_id
_symmetry_equiv_pos_as_xyz
1 x,y,z
2 -x,-y,1/2+z
3 -y,x-y,z
4 -x+y,-x,z
5 x-y,x,1/2+z
6 y,-x+y,1/2+z
7 x-y,-y,-z
8 -x,-x+y,-z
9 y,x,-z
10 -y,-x,1/2-z
11 x,x-y,1/2-z
12 -x+y,y,1/2-z
13 -x,-y,-z
14 x,y,1/2-z
15 y,-x+y,-z
16 x-y,x,-z
17 -x+y,-x,1/2-z
18 -y,x-y,1/2-z
19 -x+y,y,z
20 x,x-y,z
21 -y,-x,z
22 y,x,1/2+z
23 -x,-x+y,1/2+z
24 x-y,-y,1/2+z
loop_
_atom_site_label
_atom_site_type_symbol
_atom_site_symmetry_multiplicity
_atom_site_fract_x
_atom_site_fract_y
_atom_site_fract_z
_atom_site_occupancy
O1 O 24 0.66080 0.69530 0.06060 1.0000
O2 O 24 0.66800 0.69120 0.18680 1.0000
O3 O 12 0.53030 0.76515 0.12880 1.0000
O4 O 12 0.46855 0.53145 0.12530 1.0000
O5 O 12 0.11585 0.88415 0.98190 1.0000
O6 O 6 0.10130 0.89870 0.25000 1.0000
O7 O 6 0.26840 0.13420 0.25000 1.0000
Si1 Si 24 0.58170 0.67060 0.12540 1.0000
Si2 Si 12 0.24660 0.99650 0.25000 1.0000
Si3 Si 12 0.24780 0.00000 0.00000 1.0000
Lr1 Lr 2 0.33333 0.66667 0.25000 1.0000
Lr2 Lr 4 0.00000 0.00000 0.12513 1.0000
Lr3 Lr 2 0.33333 0.66667 0.75000 1.0000
loop_
_topos_bond_atom_site_label_1
_topos_bond_atom_site_label_2
_topos_bond_site_symmetry_1
_topos_bond_site_symmetry_2
_topos_bond_distance
_topos_bond_type
_topos_bond_multiplicity
O1 Si1 1_0_0_0 1_0_0_0 1.6090 V 24
O1 Si3 1_0_0_0 4_1_1_0 1.6100 V 24
O2 Si1 1_0_0_0 1_0_0_0 1.6090 V 24
O2 Si2 1_0_0_0 4_0_1_0 1.6090 V 24
O3 Si1 1_0_0_0 1_0_0_0 1.6110 V 24
O4 Si1 1_0_0_0 1_0_0_0 1.6080 V 24
O5 Si3 1_0_0_0 1_0_1_1 1.6090 V 24
O6 Si2 1_0_0_0 1_0_0_0 1.6100 V 12
O7 Si2 1_0_0_0 11_0_1_0 1.6090 V 12
#End of data_7-TOPOS_AFG-PPT1

data_8-TOPOS_AFI-PPT1
_audit_creation_date                2025-02-23
_audit_creation_method              ToposPro
_chemical_formula_structural        AFI-PPT1
_chemical_formula_sum               'Lr1 O2 Si1'
_citation_special_details
;
Space Group: P6/MCC->P 6/m c c. File: AFI-PPT1.cif. 
;
_cell_length_a                      13.8271
_cell_length_b                      13.8271
_cell_length_c                      8.5803
_cell_angle_alpha                   90
_cell_angle_beta                    90
_cell_angle_gamma                   120
_cell_volume                        1420.677
_cell_formula_units_Z               24
_symmetry_space_group_name_H-M      'P 6/m c c'
_symmetry_Int_Tables_number         192
_refine_ls_R_factor_all             0
loop_
_symmetry_equiv_pos_site_id
_symmetry_equiv_pos_as_xyz
1 x,y,z
2 -x,-y,z
3 -y,x-y,z
4 -x+y,-x,z
5 x-y,x,z
6 y,-x+y,z
7 x-y,-y,1/2-z
8 -x,-x+y,1/2-z
9 y,x,1/2-z
10 -y,-x,1/2-z
11 x,x-y,1/2-z
12 -x+y,y,1/2-z
13 -x,-y,-z
14 x,y,-z
15 y,-x+y,-z
16 x-y,x,-z
17 -x+y,-x,-z
18 -y,x-y,-z
19 -x+y,y,1/2+z
20 x,x-y,1/2+z
21 -y,-x,1/2+z
22 y,x,1/2+z
23 -x,-x+y,1/2+z
24 x-y,-y,1/2+z
loop_
_atom_site_label
_atom_site_type_symbol
_atom_site_symmetry_multiplicity
_atom_site_fract_x
_atom_site_fract_y
_atom_site_fract_z
_atom_site_occupancy
O1 O 12 0.45652 0.33333 0.00000 1.0000
O2 O 12 0.36928 0.36928 0.25000 1.0000
O3 O 12 0.42004 0.21002 0.25000 1.0000
O4 O 12 0.57983 0.42017 0.25000 1.0000
Si1 Si 24 0.45650 0.33333 0.18735 1.0000
Lr1 Lr 6 0.50000 0.50000 0.50000 1.0000
Lr2 Lr 12 0.47825 0.36413 0.50000 1.0000
Lr3 Lr 4 0.66667 0.33333 0.50000 1.0000
Lr4 Lr 2 0.00000 0.00000 0.50000 1.0000
loop_
_topos_bond_atom_site_label_1
_topos_bond_atom_site_label_2
_topos_bond_site_symmetry_1
_topos_bond_site_symmetry_2
_topos_bond_distance
_topos_bond_type
_topos_bond_multiplicity
O1 Si1 1_0_0_0 1_0_0_0 1.6080 V 24
O2 Si1 1_0_0_0 1_0_0_0 1.6090 V 24
O3 Si1 1_0_0_0 1_0_0_0 1.6100 V 24
O4 Si1 1_0_0_0 1_0_0_0 1.6100 V 24
Lr1 Lr2 1_0_0_0 1_0_0_0 1.7480 V 12
Lr2 Lr3 1_0_0_0 1_0_0_0 2.8420 V 12
Lr4 Lr4 1_0_0_0 7_0_0_1 4.2900 V 2
#End of data_8-TOPOS_AFI-PPT1

data_9-TOPOS_AFN-PPT1
_audit_creation_date                2025-02-23
_audit_creation_method              ToposPro
_chemical_formula_structural        AFN-PPT1
_chemical_formula_sum               'Lr7 O32 Si16'
_citation_special_details
;
Space Group: C2/M->C 2/m. File: AFN-PPT1.cif. 
;
_cell_length_a                      14.02
_cell_length_b                      13.466
_cell_length_c                      10.202
_cell_angle_alpha                   90
_cell_angle_beta                    107.239
_cell_angle_gamma                   90
_cell_volume                        1839.544
_cell_formula_units_Z               2
_symmetry_space_group_name_H-M      'C 2/m'
_symmetry_Int_Tables_number         12
_refine_ls_R_factor_all             0
loop_
_symmetry_equiv_pos_site_id
_symmetry_equiv_pos_as_xyz
1 x,y,z
2 -x,y,-z
3 -x,-y,-z
4 x,-y,z
5 1/2+x,1/2+y,z
6 1/2-x,1/2+y,-z
7 1/2-x,1/2-y,-z
8 1/2+x,1/2-y,z
loop_
_atom_site_label
_atom_site_type_symbol
_atom_site_symmetry_multiplicity
_atom_site_fract_x
_atom_site_fract_y
_atom_site_fract_z
_atom_site_occupancy
O1 O 8 0.81830 0.84190 0.32620 1.0000
O2 O 8 0.76440 0.68240 0.17550 1.0000
O3 O 8 0.62570 0.78860 0.23250 1.0000
O4 O 8 0.71890 0.86050 0.06640 1.0000
O5 O 8 0.44120 0.85520 0.14870 1.0000
O6 O 8 0.52410 0.32810 0.76230 1.0000
O7 O 4 0.31050 0.00000 0.12250 1.0000
O8 O 4 0.50000 0.35740 0.50000 1.0000
O9 O 4 0.57250 0.50000 0.67760 1.0000
O10 O 4 0.50000 0.27590 0.00000 1.0000
Si1 Si 8 0.51130 0.24070 0.15490 1.0000
Si2 Si 8 0.73180 0.79360 0.20140 1.0000
Si3 Si 8 0.32460 0.88400 0.09510 1.0000
Si4 Si 8 0.56960 0.38180 0.65290 1.0000
Lr1 Lr 4 0.45364 0.00000 0.95972 1.0000
Lr2 Lr 4 0.63470 0.00000 0.14068 1.0000
Lr3 Lr 4 0.37500 0.50000 0.00000 1.0000
Lr4 Lr 2 0.50000 0.00000 0.50000 1.0000
loop_
_topos_bond_atom_site_label_1
_topos_bond_atom_site_label_2
_topos_bond_site_symmetry_1
_topos_bond_site_symmetry_2
_topos_bond_distance
_topos_bond_type
_topos_bond_multiplicity
O1 Si2 1_0_0_0 1_0_0_0 1.6120 V 8
O1 Si4 1_0_0_0 6_1_0_1 1.6140 V 8
O2 Si2 1_0_0_0 1_0_0_0 1.6100 V 8
O2 Si3 1_0_0_0 8_0_1_0 1.6110 V 8
O3 Si2 1_0_0_0 1_0_0_0 1.6120 V 8
O3 Si1 1_0_0_0 4_0_1_0 1.6130 V 8
O4 Si2 1_0_0_0 1_0_0_0 1.6100 V 8
O4 Si3 1_0_0_0 2_1_0_0 1.6100 V 8
O5 Si3 1_0_0_0 1_0_0_0 1.6100 V 8
O5 Si1 1_0_0_0 4_0_1_0 1.6130 V 8
O6 Si4 1_0_0_0 1_0_0_0 1.6120 V 8
O6 Si1 1_0_0_0 2_1_0_1 1.6100 V 8
O7 Si3 1_0_0_0 1_0_-1_0 1.6090 V 8
O8 Si4 1_0_0_0 1_0_0_0 1.6100 V 8
O9 Si4 1_0_0_0 1_0_0_0 1.6100 V 8
O10 Si1 1_0_0_0 1_0_0_0 1.6120 V 8
Lr1 Lr2 1_0_0_0 2_1_0_1 1.3530 V 4
Lr1 Lr1 1_0_0_0 2_1_0_2 1.3160 V 2
Lr2 Lr4 1_0_0_0 1_0_0_0 4.5940 V 4
Lr3 Lr3 1_0_0_0 2_1_0_0 3.5050 V 2
Lr3 Lr4 1_0_0_0 5_-1_0_-1 6.1450 V 4
Lr4 Lr4 1_0_0_0 5_-1_-1_0 9.7200 V 4
#End of data_9-TOPOS_AFN-PPT1

data_10-TOPOS_AFO-PPT1
_audit_creation_date                2025-02-23
_audit_creation_method              ToposPro
_chemical_formula_structural        AFO-PPT1
_chemical_formula_sum               'Lr1 O2 Si1'
_citation_special_details
;
Space Group: CMCM->C m c m. File: AFO-PPT1.cif. 
;
_cell_length_a                      9.764
_cell_length_b                      25.614
_cell_length_c                      8.327
_cell_angle_alpha                   90
_cell_angle_beta                    90
_cell_angle_gamma                   90
_cell_volume                        2082.542
_cell_formula_units_Z               40
_symmetry_space_group_name_H-M      'C m c m'
_symmetry_Int_Tables_number         63
_refine_ls_R_factor_all             0
loop_
_symmetry_equiv_pos_site_id
_symmetry_equiv_pos_as_xyz
1 x,y,z
2 -x,-y,1/2+z
3 x,-y,-z
4 -x,y,1/2-z
5 -x,-y,-z
6 x,y,1/2-z
7 -x,y,z
8 x,-y,1/2+z
9 1/2+x,1/2+y,z
10 1/2-x,1/2-y,1/2+z
11 1/2+x,1/2-y,-z
12 1/2-x,1/2+y,1/2-z
13 1/2-x,1/2-y,-z
14 1/2+x,1/2+y,1/2-z
15 1/2-x,1/2+y,z
16 1/2+x,1/2-y,1/2+z
loop_
_atom_site_label
_atom_site_type_symbol
_atom_site_symmetry_multiplicity
_atom_site_fract_x
_atom_site_fract_y
_atom_site_fract_z
_atom_site_occupancy
O1 O 16 0.36550 0.35880 0.52330 1.0000
O2 O 16 0.13470 0.31000 0.46040 1.0000
O3 O 16 0.13460 0.41130 0.51130 1.0000
O4 O 8 0.18060 0.34640 0.75000 1.0000
O5 O 4 0.50000 0.00000 0.50000 1.0000
O6 O 4 0.50000 0.06280 0.75000 1.0000
O7 O 4 0.50000 0.24640 0.75000 1.0000
O8 O 8 0.50000 0.27360 0.44530 1.0000
O9 O 4 0.00000 0.14570 0.75000 1.0000
Si1 Si 16 0.20400 0.35670 0.56140 1.0000
Si2 Si 8 0.50000 0.05990 0.55710 1.0000
Si3 Si 8 0.50000 0.22500 0.56810 1.0000
Si4 Si 8 0.00000 0.16360 0.56470 1.0000
Lr1 Lr 8 0.25000 0.25000 0.75000 1.0000
Lr2 Lr 4 0.50000 0.50000 0.75000 1.0000
Lr3 Lr 4 0.50000 0.31870 0.75000 1.0000
Lr4 Lr 4 0.00000 0.35713 0.75000 1.0000
Lr5 Lr 4 0.00000 0.42835 0.75000 1.0000
Lr6 Lr 4 0.00000 0.28800 0.75000 1.0000
Lr7 Lr 4 0.00000 0.35713 0.25000 1.0000
Lr8 Lr 8 0.17600 0.35205 0.25000 1.0000
loop_
_topos_bond_atom_site_label_1
_topos_bond_atom_site_label_2
_topos_bond_site_symmetry_1
_topos_bond_site_symmetry_2
_topos_bond_distance
_topos_bond_type
_topos_bond_multiplicity
O1 Si1 1_0_0_0 1_0_0_0 1.6090 V 16
O1 Si4 1_0_0_0 11_0_0_1 1.6100 V 16
O2 Si1 1_0_0_0 1_0_0_0 1.6110 V 16
O2 Si3 1_0_0_0 11_-1_0_1 1.6090 V 16
O3 Si1 1_0_0_0 1_0_0_0 1.6090 V 16
O3 Si2 1_0_0_0 11_-1_0_1 1.6110 V 16
O4 Si1 1_0_0_0 1_0_0_0 1.6090 V 16
O5 Si2 1_0_0_0 1_0_0_0 1.6060 V 8
O6 Si2 1_0_0_0 1_0_0_0 1.6080 V 8
O7 Si3 1_0_0_0 1_0_0_0 1.6110 V 8
O8 Si3 1_0_0_0 1_0_0_0 1.6110 V 8
O8 Si4 1_0_0_0 11_0_0_1 1.6110 V 8
O9 Si4 1_0_0_0 1_0_0_0 1.6100 V 8
Lr1 Lr6 1_0_0_0 1_0_0_0 2.6280 V 8
Lr1 Lr8 1_0_0_0 10_0_0_0 2.7120 V 8
Lr2 Lr2 1_0_0_0 2_1_1_-1 4.1630 V 4
Lr4 Lr5 1_0_0_0 1_0_0_0 1.8240 V 4
Lr4 Lr6 1_0_0_0 1_0_0_0 1.7710 V 4
Lr7 Lr8 1_0_0_0 1_0_0_0 1.7230 V 8
#End of data_10-TOPOS_AFO-PPT1

data_11-TOPOS_AFR-PPT1
_audit_creation_date                2025-02-23
_audit_creation_method              ToposPro
_chemical_formula_structural        AFR-PPT1
_chemical_formula_sum               'Lr1 O8 Si4'
_citation_special_details
;
Space Group: PMMN->P m m n. File: AFR-PPT1.cif. 
;
_cell_length_a                      22.305
_cell_length_b                      13.567
_cell_length_c                      6.972
_cell_angle_alpha                   90
_cell_angle_beta                    90
_cell_angle_gamma                   90
_cell_volume                        2109.811
_cell_formula_units_Z               8
_symmetry_space_group_name_H-M      'P m m n'
_symmetry_Int_Tables_number         59
_refine_ls_R_factor_all             0
loop_
_symmetry_equiv_pos_site_id
_symmetry_equiv_pos_as_xyz
1 x,y,z
2 -x,-y,z
3 1/2+x,1/2-y,-z
4 1/2-x,1/2+y,-z
5 1/2-x,1/2-y,-z
6 1/2+x,1/2+y,-z
7 -x,y,z
8 x,-y,z
loop_
_atom_site_label
_atom_site_type_symbol
_atom_site_symmetry_multiplicity
_atom_site_fract_x
_atom_site_fract_y
_atom_site_fract_z
_atom_site_occupancy
O1 O 8 0.39850 0.37370 0.31460 1.0000
O2 O 8 0.28080 0.36230 0.31180 1.0000
O3 O 8 0.34090 0.31460 0.62270 1.0000
O4 O 8 0.39760 0.31840 0.95330 1.0000
O5 O 8 0.28420 0.37040 0.93530 1.0000
O6 O 8 0.18540 0.31530 0.11060 1.0000
O7 O 4 0.33450 0.50000 0.51390 1.0000
O8 O 4 0.42750 0.50000 0.04390 1.0000
O9 O 4 0.22080 0.50000 0.12870 1.0000
O10 O 4 0.50000 0.35330 0.12710 1.0000
Si1 Si 8 0.33870 0.38760 0.44080 1.0000
Si2 Si 8 0.43090 0.38640 0.10980 1.0000
Si3 Si 8 0.24280 0.38710 0.12160 1.0000
Si4 Si 8 0.33440 0.29710 0.85010 1.0000
Lr1 Lr 4 0.33710 0.50000 0.99262 1.0000
Lr2 Lr 2 0.00000 0.50000 0.60519 1.0000
Lr3 Lr 2 0.50000 0.50000 0.62762 1.0000
loop_
_topos_bond_atom_site_label_1
_topos_bond_atom_site_label_2
_topos_bond_site_symmetry_1
_topos_bond_site_symmetry_2
_topos_bond_distance
_topos_bond_type
_topos_bond_multiplicity
O1 Si1 1_0_0_0 1_0_0_0 1.6090 V 8
O1 Si2 1_0_0_0 1_0_0_0 1.6100 V 8
O2 Si3 1_0_0_0 1_0_0_0 1.6090 V 8
O2 Si1 1_0_0_0 1_0_0_0 1.6110 V 8
O3 Si4 1_0_0_0 1_0_0_0 1.6100 V 8
O3 Si1 1_0_0_0 1_0_0_0 1.6100 V 8
O4 Si4 1_0_0_0 1_0_0_0 1.6090 V 8
O4 Si2 1_0_0_0 1_0_0_1 1.6100 V 8
O5 Si4 1_0_0_0 1_0_0_0 1.6110 V 8
O5 Si3 1_0_0_0 1_0_0_1 1.6100 V 8
O6 Si3 1_0_0_0 1_0_0_0 1.6110 V 8
O6 Si4 1_0_0_0 5_0_0_1 1.6110 V 8
O7 Si1 1_0_0_0 1_0_0_0 1.6110 V 8
O8 Si2 1_0_0_0 1_0_0_0 1.6100 V 8
O9 Si3 1_0_0_0 1_0_0_0 1.6090 V 8
O10 Si2 1_0_0_0 1_0_0_0 1.6100 V 8
Lr2 Lr2 1_0_0_0 1_0_0_-1 6.9720 V 2
Lr2 Lr3 1_0_0_0 3_-1_0_1 6.9750 V 4
#End of data_11-TOPOS_AFR-PPT1

data_12-TOPOS_AFS-PPT1
_audit_creation_date                2025-02-23
_audit_creation_method              ToposPro
_chemical_formula_structural        AFS-PPT1
_chemical_formula_sum               'Lr1 O14 Si7'
_citation_special_details
;
Space Group: P63/MCM->P 63/m c m. File: AFS-PPT1.cif. 
;
_cell_length_a                      13.058
_cell_length_b                      13.058
_cell_length_c                      25.919
_cell_angle_alpha                   90
_cell_angle_beta                    90
_cell_angle_gamma                   120
_cell_volume                        3827.385
_cell_formula_units_Z               8
_symmetry_space_group_name_H-M      'P 63/m c m'
_symmetry_Int_Tables_number         193
_refine_ls_R_factor_all             0
loop_
_symmetry_equiv_pos_site_id
_symmetry_equiv_pos_as_xyz
1 x,y,z
2 -x,-y,1/2+z
3 -y,x-y,z
4 -x+y,-x,z
5 x-y,x,1/2+z
6 y,-x+y,1/2+z
7 x-y,-y,1/2-z
8 -x,-x+y,1/2-z
9 y,x,1/2-z
10 -y,-x,-z
11 x,x-y,-z
12 -x+y,y,-z
13 -x,-y,-z
14 x,y,1/2-z
15 y,-x+y,-z
16 x-y,x,-z
17 -x+y,-x,1/2-z
18 -y,x-y,1/2-z
19 -x+y,y,1/2+z
20 x,x-y,1/2+z
21 -y,-x,1/2+z
22 y,x,z
23 -x,-x+y,z
24 x-y,-y,z
loop_
_atom_site_label
_atom_site_type_symbol
_atom_site_symmetry_multiplicity
_atom_site_fract_x
_atom_site_fract_y
_atom_site_fract_z
_atom_site_occupancy
O1 O 24 0.58040 0.43870 0.67760 1.0000
O2 O 24 0.41840 0.22170 0.65350 1.0000
O3 O 24 0.56700 0.36130 0.58280 1.0000
O4 O 12 0.40170 0.40170 0.61830 1.0000
O5 O 12 0.33130 0.00000 0.68220 1.0000
O6 O 12 0.43730 0.17130 0.75000 1.0000
O7 O 4 0.66667 0.33333 0.50000 1.0000
Si1 Si 24 0.49180 0.35590 0.63300 1.0000
Si2 Si 24 0.43700 0.13370 0.69080 1.0000
Si3 Si 8 0.66667 0.33333 0.56200 1.0000
Lr1 Lr 2 0.00000 0.00000 0.75000 1.0000
Lr2 Lr 2 0.00000 0.00000 0.50000 1.0000
Lr3 Lr 4 0.66667 0.33333 0.75000 1.0000
loop_
_topos_bond_atom_site_label_1
_topos_bond_atom_site_label_2
_topos_bond_site_symmetry_1
_topos_bond_site_symmetry_2
_topos_bond_distance
_topos_bond_type
_topos_bond_multiplicity
O1 Si1 1_0_0_0 1_0_0_0 1.6100 V 24
O1 Si2 1_0_0_0 4_1_1_0 1.6100 V 24
O2 Si1 1_0_0_0 1_0_0_0 1.6100 V 24
O2 Si2 1_0_0_0 1_0_0_0 1.6100 V 24
O3 Si1 1_0_0_0 1_0_0_0 1.6100 V 24
O3 Si3 1_0_0_0 1_0_0_0 1.6100 V 24
O4 Si1 1_0_0_0 1_0_0_0 1.6100 V 24
O5 Si2 1_0_0_0 1_0_0_0 1.6100 V 24
O6 Si2 1_0_0_0 1_0_0_0 1.6100 V 24
O7 Si3 1_0_0_0 1_0_0_0 1.6070 V 8
Lr1 Lr2 1_0_0_0 1_0_0_0 6.4800 V 4
Lr2 Lr2 1_0_0_0 1_0_1_0 13.0580 V 6
#End of data_12-TOPOS_AFS-PPT1

data_13-TOPOS_AFT-PPT1
_audit_creation_date                2025-02-23
_audit_creation_method              ToposPro
_chemical_formula_structural        AFT-PPT1
_chemical_formula_sum               'Lr1 O12 Si6'
_citation_special_details
;
Space Group: P63/MMC->P 63/m m c. File: AFT-PPT1.cif. 
;
_cell_length_a                      13.691
_cell_length_b                      13.691
_cell_length_c                      29.449
_cell_angle_alpha                   90
_cell_angle_beta                    90
_cell_angle_gamma                   120
_cell_volume                        4780.48
_cell_formula_units_Z               12
_symmetry_space_group_name_H-M      'P 63/m m c'
_symmetry_Int_Tables_number         194
_refine_ls_R_factor_all             0
loop_
_symmetry_equiv_pos_site_id
_symmetry_equiv_pos_as_xyz
1 x,y,z
2 -x,-y,1/2+z
3 -y,x-y,z
4 -x+y,-x,z
5 x-y,x,1/2+z
6 y,-x+y,1/2+z
7 x-y,-y,-z
8 -x,-x+y,-z
9 y,x,-z
10 -y,-x,1/2-z
11 x,x-y,1/2-z
12 -x+y,y,1/2-z
13 -x,-y,-z
14 x,y,1/2-z
15 y,-x+y,-z
16 x-y,x,-z
17 -x+y,-x,1/2-z
18 -y,x-y,1/2-z
19 -x+y,y,z
20 x,x-y,z
21 -y,-x,z
22 y,x,1/2+z
23 -x,-x+y,1/2+z
24 x-y,-y,1/2+z
loop_
_atom_site_label
_atom_site_type_symbol
_atom_site_symmetry_multiplicity
_atom_site_fract_x
_atom_site_fract_y
_atom_site_fract_z
_atom_site_occupancy
O1 O 24 0.30700 0.97410 0.16640 1.0000
O2 O 24 0.33470 0.41210 0.41680 1.0000
O3 O 12 0.25820 0.00120 0.25000 1.0000
O4 O 12 0.24150 0.12075 0.18370 1.0000
O5 O 12 0.47420 0.23710 0.64460 1.0000
O6 O 12 0.09650 0.90350 0.18930 1.0000
O7 O 12 0.43130 0.56870 0.47950 1.0000
O8 O 12 0.54580 0.45420 0.65010 1.0000
O9 O 12 0.21315 0.42630 0.48280 1.0000
O10 O 12 0.35590 0.35590 0.50000 1.0000
Si1 Si 24 0.22570 0.99980 0.19740 1.0000
Si2 Si 24 0.33390 0.44090 0.46970 1.0000
Si3 Si 24 0.44130 0.33320 0.63610 1.0000
Lr1 Lr 2 0.00000 0.00000 0.25000 1.0000
Lr2 Lr 2 0.33333 0.66667 0.25000 1.0000
Lr3 Lr 2 0.00000 0.00000 0.00000 1.0000
Lr4 Lr 2 0.66667 0.33333 0.25000 1.0000
Lr5 Lr 4 0.33333 0.66667 0.41680 1.0000
loop_
_topos_bond_atom_site_label_1
_topos_bond_atom_site_label_2
_topos_bond_site_symmetry_1
_topos_bond_site_symmetry_2
_topos_bond_distance
_topos_bond_type
_topos_bond_multiplicity
O1 Si1 1_0_0_0 1_0_0_0 1.6090 V 24
O1 Si3 1_0_0_0 6_0_1_-1 1.6110 V 24
O2 Si2 1_0_0_0 1_0_0_0 1.6080 V 24
O2 Si3 1_0_0_0 9_0_0_1 1.6110 V 24
O3 Si1 1_0_0_0 1_0_-1_0 1.6090 V 24
O4 Si1 1_0_0_0 1_0_-1_0 1.6100 V 24
O5 Si3 1_0_0_0 1_0_0_0 1.6090 V 24
O6 Si1 1_0_0_0 1_0_0_0 1.6100 V 24
O7 Si2 1_0_0_0 1_0_0_0 1.6090 V 24
O8 Si3 1_0_0_0 1_0_0_0 1.6100 V 24
O9 Si2 1_0_0_0 1_0_0_0 1.6100 V 24
O10 Si2 1_0_0_0 1_0_0_0 1.6100 V 24
Lr2 Lr4 1_0_0_0 1_0_0_0 7.9050 V 6
Lr3 Lr4 1_0_0_0 1_0_0_0 10.8020 V 12
#End of data_13-TOPOS_AFT-PPT1

data_14-TOPOS_AFV-PPT1
_audit_creation_date                2025-02-23
_audit_creation_method              ToposPro
_chemical_formula_structural        AFV-PPT1
_chemical_formula_sum               'Lr1 O12 Si6'
_citation_special_details
;
Space Group: P-3M1->P -3 m 1. File: AFV-PPT1.cif. 
;
_cell_length_a                      13.2261
_cell_length_b                      13.2261
_cell_length_c                      12.5838
_cell_angle_alpha                   90
_cell_angle_beta                    90
_cell_angle_gamma                   120
_cell_volume                        1906.365
_cell_formula_units_Z               5
_symmetry_space_group_name_H-M      'P -3 m 1'
_symmetry_Int_Tables_number         164
_refine_ls_R_factor_all             0
loop_
_symmetry_equiv_pos_site_id
_symmetry_equiv_pos_as_xyz
1 x,y,z
2 -y,x-y,z
3 -x+y,-x,z
4 x-y,-y,-z
5 -x,-x+y,-z
6 y,x,-z
7 -x,-y,-z
8 y,-x+y,-z
9 x-y,x,-z
10 -x+y,y,z
11 x,x-y,z
12 -y,-x,z
loop_
_atom_site_label
_atom_site_type_symbol
_atom_site_symmetry_multiplicity
_atom_site_fract_x
_atom_site_fract_y
_atom_site_fract_z
_atom_site_occupancy
O1 O 12 0.32200 0.02660 0.10110 1.0000
O2 O 12 0.40240 0.05240 0.29510 1.0000
O3 O 6 0.47220 0.23610 0.17190 1.0000
O4 O 6 0.41060 0.20530 0.43270 1.0000
O5 O 6 0.54260 0.08520 0.13540 1.0000
O6 O 6 0.57250 0.14500 0.43520 1.0000
O7 O 6 0.35870 0.00000 0.50000 1.0000
O8 O 6 0.88830 0.11170 0.97570 1.0000
Si1 Si 12 0.43490 0.10010 0.17500 1.0000
Si2 Si 12 0.43620 0.09980 0.41500 1.0000
Si3 Si 6 0.00000 0.23770 0.00000 1.0000
Lr1 Lr 2 0.66667 0.33333 0.29500 1.0000
Lr2 Lr 2 0.33333 0.66667 0.20000 1.0000
Lr3 Lr 1 0.00000 0.00000 0.50000 1.0000
loop_
_topos_bond_atom_site_label_1
_topos_bond_atom_site_label_2
_topos_bond_site_symmetry_1
_topos_bond_site_symmetry_2
_topos_bond_distance
_topos_bond_type
_topos_bond_multiplicity
O1 Si1 1_0_0_0 1_0_0_0 1.6090 V 12
O1 Si3 1_0_0_0 3_0_0_0 1.6100 V 12
O2 Si2 1_0_0_0 1_0_0_0 1.6090 V 12
O2 Si1 1_0_0_0 1_0_0_0 1.6110 V 12
O3 Si1 1_0_0_0 1_0_0_0 1.6100 V 12
O4 Si2 1_0_0_0 1_0_0_0 1.6070 V 12
O5 Si1 1_0_0_0 1_0_0_0 1.6120 V 12
O6 Si2 1_0_0_0 1_0_0_0 1.6110 V 12
O7 Si2 1_0_0_0 1_0_0_0 1.6080 V 12
O8 Si3 1_0_0_0 9_1_0_1 1.6100 V 12
Lr2 Lr3 1_0_0_0 1_0_0_0 8.5180 V 6
#End of data_14-TOPOS_AFV-PPT1

data_15-TOPOS_AFX-PPT1
_audit_creation_date                2025-02-23
_audit_creation_method              ToposPro
_chemical_formula_structural        AFX-PPT1
_chemical_formula_sum               'Lr1 O12 Si6'
_citation_special_details
;
Space Group: P63/MMC->P 63/m m c. File: AFX-PPT1.cif. 
;
_cell_length_a                      13.674
_cell_length_b                      13.674
_cell_length_c                      19.695
_cell_angle_alpha                   90
_cell_angle_beta                    90
_cell_angle_gamma                   120
_cell_volume                        3189.171
_cell_formula_units_Z               8
_symmetry_space_group_name_H-M      'P 63/m m c'
_symmetry_Int_Tables_number         194
_refine_ls_R_factor_all             0
loop_
_symmetry_equiv_pos_site_id
_symmetry_equiv_pos_as_xyz
1 x,y,z
2 -x,-y,1/2+z
3 -y,x-y,z
4 -x+y,-x,z
5 x-y,x,1/2+z
6 y,-x+y,1/2+z
7 x-y,-y,-z
8 -x,-x+y,-z
9 y,x,-z
10 -y,-x,1/2-z
11 x,x-y,1/2-z
12 -x+y,y,1/2-z
13 -x,-y,-z
14 x,y,1/2-z
15 y,-x+y,-z
16 x-y,x,-z
17 -x+y,-x,1/2-z
18 -y,x-y,1/2-z
19 -x+y,y,z
20 x,x-y,z
21 -y,-x,z
22 y,x,1/2+z
23 -x,-x+y,1/2+z
24 x-y,-y,1/2+z
loop_
_atom_site_label
_atom_site_type_symbol
_atom_site_symmetry_multiplicity
_atom_site_fract_x
_atom_site_fract_y
_atom_site_fract_z
_atom_site_occupancy
O1 O 24 0.02320 0.33333 0.12500 1.0000
O2 O 12 0.09800 0.19600 0.09200 1.0000
O3 O 12 0.23545 0.47090 0.15770 1.0000
O4 O 12 0.87970 0.12030 0.09860 1.0000
O5 O 12 0.45370 0.54630 0.15180 1.0000
O6 O 12 0.00000 0.25770 0.00000 1.0000
O7 O 12 0.33250 0.40850 0.25000 1.0000
Si1 Si 24 0.00030 0.22680 0.07880 1.0000
Si2 Si 24 0.33290 0.43980 0.17120 1.0000
Lr1 Lr 2 0.00000 0.00000 0.00000 1.0000
Lr2 Lr 2 0.66667 0.33333 0.25000 1.0000
Lr3 Lr 2 0.00000 0.00000 0.25000 1.0000
Lr4 Lr 2 0.33333 0.66667 0.25000 1.0000
loop_
_topos_bond_atom_site_label_1
_topos_bond_atom_site_label_2
_topos_bond_site_symmetry_1
_topos_bond_site_symmetry_2
_topos_bond_distance
_topos_bond_type
_topos_bond_multiplicity
O1 Si1 1_0_0_0 1_0_0_0 1.6100 V 24
O1 Si2 1_0_0_0 19_0_0_0 1.6100 V 24
O2 Si1 1_0_0_0 1_0_0_0 1.6100 V 24
O3 Si2 1_0_0_0 1_0_0_0 1.6110 V 24
O4 Si1 1_0_0_0 1_1_0_0 1.6100 V 24
O5 Si2 1_0_0_0 1_0_0_0 1.6090 V 24
O6 Si1 1_0_0_0 1_0_0_0 1.6090 V 24
O7 Si2 1_0_0_0 1_0_0_0 1.6090 V 24
Lr2 Lr3 1_0_0_0 1_0_0_0 7.8950 V 6
Lr2 Lr2 1_0_0_0 2_1_1_-1 12.6210 V 6
#End of data_15-TOPOS_AFX-PPT1

data_16-TOPOS_AFY-PPT1
_audit_creation_date                2025-02-23
_audit_creation_method              ToposPro
_chemical_formula_structural        AFY-PPT1
_chemical_formula_sum               'Lr3 O32 Si16'
_citation_special_details
;
Space Group: P-31M->P -3 1 m. File: AFY-PPT1.cif. 
;
_cell_length_a                      12.33
_cell_length_b                      12.33
_cell_length_c                      8.603
_cell_angle_alpha                   90
_cell_angle_beta                    90
_cell_angle_gamma                   120
_cell_volume                        1132.679
_cell_formula_units_Z               1
_symmetry_space_group_name_H-M      'P -3 1 m'
_symmetry_Int_Tables_number         162
_refine_ls_R_factor_all             0
loop_
_symmetry_equiv_pos_site_id
_symmetry_equiv_pos_as_xyz
1 x,y,z
2 -y,x-y,z
3 -x+y,-x,z
4 -y,-x,-z
5 x,x-y,-z
6 -x+y,y,-z
7 -x,-y,-z
8 y,-x+y,-z
9 x-y,x,-z
10 y,x,z
11 -x,-x+y,z
12 x-y,-y,z
loop_
_atom_site_label
_atom_site_type_symbol
_atom_site_symmetry_multiplicity
_atom_site_fract_x
_atom_site_fract_y
_atom_site_fract_z
_atom_site_occupancy
O1 O 12 0.30870 0.77570 0.24910 1.0000
O2 O 6 0.35320 0.00000 0.33680 1.0000
O3 O 6 0.20000 0.80000 0.50000 1.0000
O4 O 6 0.44100 0.88200 0.50000 1.0000
O5 O 2 0.66667 0.33333 0.00000 1.0000
Si1 Si 12 0.32510 0.86410 0.39520 1.0000
Si2 Si 4 0.66667 0.33333 0.18680 1.0000
Lr1 Lr 2 0.33333 0.66667 0.50000 1.0000
Lr2 Lr 1 0.00000 0.00000 0.00000 1.0000
loop_
_topos_bond_atom_site_label_1
_topos_bond_atom_site_label_2
_topos_bond_site_symmetry_1
_topos_bond_site_symmetry_2
_topos_bond_distance
_topos_bond_type
_topos_bond_multiplicity
O1 Si1 1_0_0_0 1_0_0_0 1.6090 V 12
O1 Si2 1_0_0_0 10_0_0_0 1.6110 V 12
O2 Si1 1_0_0_0 1_0_-1_0 1.6120 V 12
O3 Si1 1_0_0_0 1_0_0_0 1.6120 V 12
O4 Si1 1_0_0_0 1_0_0_0 1.6090 V 12
O5 Si2 1_0_0_0 1_0_0_0 1.6070 V 4
Lr2 Lr2 1_0_0_0 1_0_1_0 12.3300 V 3
Lr2 Lr2 1_0_0_0 1_0_0_1 8.6030 V 1
#End of data_16-TOPOS_AFY-PPT1

data_17-TOPOS_AHT-PPT1
_audit_creation_date                2025-02-23
_audit_creation_method              ToposPro
_chemical_formula_structural        AHT-PPT1
_chemical_formula_sum               'Lr1 O2 Si1'
_citation_special_details
;
Space Group: CMCM->C m c m. File: AHT-PPT1.cif. 
;
_cell_length_a                      15.794
_cell_length_b                      9.206
_cell_length_c                      8.589
_cell_angle_alpha                   90
_cell_angle_beta                    90
_cell_angle_gamma                   90
_cell_volume                        1248.837
_cell_formula_units_Z               24
_symmetry_space_group_name_H-M      'C m c m'
_symmetry_Int_Tables_number         63
_refine_ls_R_factor_all             0
loop_
_symmetry_equiv_pos_site_id
_symmetry_equiv_pos_as_xyz
1 x,y,z
2 -x,-y,1/2+z
3 x,-y,-z
4 -x,y,1/2-z
5 -x,-y,-z
6 x,y,1/2-z
7 -x,y,z
8 x,-y,1/2+z
9 1/2+x,1/2+y,z
10 1/2-x,1/2-y,1/2+z
11 1/2+x,1/2-y,-z
12 1/2-x,1/2+y,1/2-z
13 1/2-x,1/2-y,-z
14 1/2+x,1/2+y,1/2-z
15 1/2-x,1/2+y,z
16 1/2+x,1/2-y,1/2+z
loop_
_atom_site_label
_atom_site_type_symbol
_atom_site_symmetry_multiplicity
_atom_site_fract_x
_atom_site_fract_y
_atom_site_fract_z
_atom_site_occupancy
O1 O 16 0.08360 0.74460 0.99850 1.0000
O2 O 8 0.16960 0.50000 0.00000 1.0000
O3 O 8 0.16840 0.66420 0.75000 1.0000
O4 O 8 0.25000 0.75000 0.00000 1.0000
O5 O 4 0.00000 0.33460 0.75000 1.0000
O6 O 4 0.00000 0.50000 0.00000 1.0000
Si1 Si 16 0.16810 0.66460 0.93720 1.0000
Si2 Si 8 0.00000 0.33560 0.93710 1.0000
Lr1 Lr 8 0.08405 0.50000 0.75000 1.0000
Lr2 Lr 8 0.33298 0.87505 0.75000 1.0000
Lr3 Lr 4 0.00000 0.00000 0.75000 1.0000
Lr4 Lr 4 0.00000 0.58230 0.75000 1.0000
loop_
_topos_bond_atom_site_label_1
_topos_bond_atom_site_label_2
_topos_bond_site_symmetry_1
_topos_bond_site_symmetry_2
_topos_bond_distance
_topos_bond_type
_topos_bond_multiplicity
O1 Si1 1_0_0_0 1_0_0_0 1.6130 V 16
O1 Si2 1_0_0_0 3_0_1_2 1.6110 V 16
O2 Si1 1_0_0_0 1_0_0_-1 1.6090 V 16
O3 Si1 1_0_0_0 1_0_0_0 1.6080 V 16
O4 Si1 1_0_0_0 1_0_0_-1 1.6070 V 16
O5 Si2 1_0_0_0 1_0_0_0 1.6070 V 8
O6 Si2 1_0_0_0 3_0_1_1 1.6070 V 8
Lr1 Lr4 1_0_0_0 1_0_0_0 1.5280 V 8
Lr1 Lr2 1_0_0_0 12_0_-1_1 1.7440 V 8
Lr3 Lr3 1_0_0_0 2_0_0_-1 4.2950 V 4
#End of data_17-TOPOS_AHT-PPT1

data_18-TOPOS_ANA-PPT1
_audit_creation_date                2025-02-23
_audit_creation_method              ToposPro
_chemical_formula_structural        ANA-PPT1
_chemical_formula_sum               'Lr5 O12 Si6'
_citation_special_details
;
Space Group: IA-3D->I a -3 d. File: ANA-PPT1.cif. 
;
_cell_length_a                      13.567
_cell_length_b                      13.567
_cell_length_c                      13.567
_cell_angle_alpha                   90
_cell_angle_beta                    90
_cell_angle_gamma                   90
_cell_volume                        2497.19
_cell_formula_units_Z               8
_symmetry_space_group_name_H-M      'I a -3 d'
_symmetry_Int_Tables_number         230
_refine_ls_R_factor_all             0
loop_
_symmetry_equiv_pos_site_id
_symmetry_equiv_pos_as_xyz
1 x,y,z
2 -x,1/2-y,z
3 x,-y,1/2-z
4 1/2-x,y,-z
5 z,x,y
6 y,z,x
7 -z,1/2-x,y
8 1/2-y,z,-x
9 z,-x,1/2-y
10 -y,1/2-z,x
11 1/2-z,x,-y
12 y,-z,1/2-x
13 1/4-y,1/4-x,1/4-z
14 3/4+y,1/4+x,1/4-z
15 1/4+y,1/4-x,3/4+z
16 1/4-y,3/4+x,1/4+z
17 1/4-x,1/4-z,1/4-y
18 1/4-z,1/4-y,1/4-x
19 3/4+x,1/4+z,1/4-y
20 1/4-z,3/4+y,1/4+x
21 1/4+x,1/4-z,3/4+y
22 3/4+z,1/4+y,1/4-x
23 1/4-x,3/4+z,1/4+y
24 1/4+z,1/4-y,3/4+x
25 -x,-y,-z
26 x,1/2+y,-z
27 -x,y,1/2+z
28 1/2+x,-y,z
29 -z,-x,-y
30 -y,-z,-x
31 z,1/2+x,-y
32 1/2+y,-z,x
33 -z,x,1/2+y
34 y,1/2+z,-x
35 1/2+z,-x,y
36 -y,z,1/2+x
37 1/4+y,1/4+x,1/4+z
38 3/4-y,1/4-x,1/4+z
39 1/4-y,1/4+x,3/4-z
40 1/4+y,3/4-x,1/4-z
41 1/4+x,1/4+z,1/4+y
42 1/4+z,1/4+y,1/4+x
43 3/4-x,1/4-z,1/4+y
44 1/4+z,3/4-y,1/4-x
45 1/4-x,1/4+z,3/4-y
46 3/4-z,1/4-y,1/4+x
47 1/4+x,3/4-z,1/4-y
48 1/4-z,1/4+y,3/4-x
49 1/2+x,1/2+y,1/2+z
50 1/2-x,-y,1/2+z
51 1/2+x,1/2-y,-z
52 -x,1/2+y,1/2-z
53 1/2+z,1/2+x,1/2+y
54 1/2+y,1/2+z,1/2+x
55 1/2-z,-x,1/2+y
56 -y,1/2+z,1/2-x
57 1/2+z,1/2-x,-y
58 1/2-y,-z,1/2+x
59 -z,1/2+x,1/2-y
60 1/2+y,1/2-z,-x
61 3/4-y,3/4-x,3/4-z
62 1/4+y,3/4+x,3/4-z
63 3/4+y,3/4-x,1/4+z
64 3/4-y,1/4+x,3/4+z
65 3/4-x,3/4-z,3/4-y
66 3/4-z,3/4-y,3/4-x
67 1/4+x,3/4+z,3/4-y
68 3/4-z,1/4+y,3/4+x
69 3/4+x,3/4-z,1/4+y
70 1/4+z,3/4+y,3/4-x
71 3/4-x,1/4+z,3/4+y
72 3/4+z,3/4-y,1/4+x
73 1/2-x,1/2-y,1/2-z
74 1/2+x,y,1/2-z
75 1/2-x,1/2+y,z
76 x,1/2-y,1/2+z
77 1/2-z,1/2-x,1/2-y
78 1/2-y,1/2-z,1/2-x
79 1/2+z,x,1/2-y
80 y,1/2-z,1/2+x
81 1/2-z,1/2+x,y
82 1/2+y,z,1/2-x
83 z,1/2-x,1/2+y
84 1/2-y,1/2+z,x
85 3/4+y,3/4+x,3/4+z
86 1/4-y,3/4-x,3/4+z
87 3/4-y,3/4+x,1/4-z
88 3/4+y,1/4-x,3/4-z
89 3/4+x,3/4+z,3/4+y
90 3/4+z,3/4+y,3/4+x
91 1/4-x,3/4-z,3/4+y
92 3/4+z,1/4-y,3/4-x
93 3/4-x,3/4+z,1/4-y
94 1/4-z,3/4-y,3/4+x
95 3/4+x,1/4-z,3/4-y
96 3/4-z,3/4+y,1/4-x
loop_
_atom_site_label
_atom_site_type_symbol
_atom_site_symmetry_multiplicity
_atom_site_fract_x
_atom_site_fract_y
_atom_site_fract_z
_atom_site_occupancy
O1 O 96 0.64170 0.47160 0.11800 1.0000
Si1 Si 48 0.66160 0.58840 0.12500 1.0000
Lr1 Lr 24 0.75000 0.37500 0.00000 1.0000
Lr2 Lr 16 0.37500 0.62500 0.12500 1.0000
loop_
_topos_bond_atom_site_label_1
_topos_bond_atom_site_label_2
_topos_bond_site_symmetry_1
_topos_bond_site_symmetry_2
_topos_bond_distance
_topos_bond_type
_topos_bond_multiplicity
O1 Si1 1_0_0_0 1_0_0_0 1.6100 V 96
O1 Si1 1_0_0_0 45_1_0_0 1.6090 V 96
Lr1 Lr2 1_0_0_0 25_1_1_0 2.3980 V 48
#End of data_18-TOPOS_ANA-PPT1

data_19-TOPOS_ANO-PPT1
_audit_creation_date                2025-02-23
_audit_creation_method              ToposPro
_chemical_formula_structural        ANO-PPT1
_chemical_formula_sum               'Lr1 O12 Si6'
_citation_special_details
;
Space Group: P63/MMC->P 63/m m c. File: ANO-PPT1.cif. 
;
_cell_length_a                      12.8841
_cell_length_b                      12.8841
_cell_length_c                      40.3613
_cell_angle_alpha                   90
_cell_angle_beta                    90
_cell_angle_gamma                   120
_cell_volume                        5802.351
_cell_formula_units_Z               16
_symmetry_space_group_name_H-M      'P 63/m m c'
_symmetry_Int_Tables_number         194
_refine_ls_R_factor_all             0
loop_
_symmetry_equiv_pos_site_id
_symmetry_equiv_pos_as_xyz
1 x,y,z
2 -x,-y,1/2+z
3 -y,x-y,z
4 -x+y,-x,z
5 x-y,x,1/2+z
6 y,-x+y,1/2+z
7 x-y,-y,-z
8 -x,-x+y,-z
9 y,x,-z
10 -y,-x,1/2-z
11 x,x-y,1/2-z
12 -x+y,y,1/2-z
13 -x,-y,-z
14 x,y,1/2-z
15 y,-x+y,-z
16 x-y,x,-z
17 -x+y,-x,1/2-z
18 -y,x-y,1/2-z
19 -x+y,y,z
20 x,x-y,z
21 -y,-x,z
22 y,x,1/2+z
23 -x,-x+y,1/2+z
24 x-y,-y,1/2+z
loop_
_atom_site_label
_atom_site_type_symbol
_atom_site_symmetry_multiplicity
_atom_site_fract_x
_atom_site_fract_y
_atom_site_fract_z
_atom_site_occupancy
O1 O 24 0.35288 0.03109 0.06131 1.0000
O2 O 24 0.33776 0.04123 0.12608 1.0000
O3 O 24 0.01465 0.31292 0.18914 1.0000
O4 O 12 0.12946 0.87054 0.04805 1.0000
O5 O 12 0.89866 0.10134 0.16060 1.0000
O6 O 12 0.20036 0.10018 0.04358 1.0000
O7 O 12 0.47432 0.23716 0.09230 1.0000
O8 O 12 0.27473 0.00000 0.00000 1.0000
O9 O 12 0.53549 0.07098 0.09906 1.0000
O10 O 12 0.12451 0.24902 0.14562 1.0000
O11 O 12 0.23450 0.46900 0.20739 1.0000
O12 O 12 0.05714 0.39572 0.25000 1.0000
O13 O 12 0.07432 0.53716 0.20084 1.0000
Si1 Si 24 0.23919 0.00043 0.03821 1.0000
Si2 Si 24 0.42545 0.09531 0.09461 1.0000
Si3 Si 24 0.99911 0.23978 0.15542 1.0000
Si4 Si 24 0.09517 0.42877 0.21179 1.0000
Lr1 Lr 2 0.00000 0.00000 0.00000 1.0000
Lr2 Lr 4 0.66667 0.33333 0.93880 1.0000
Lr3 Lr 4 0.00000 0.00000 0.09608 1.0000
Lr4 Lr 2 0.66667 0.33333 0.25000 1.0000
Lr5 Lr 2 0.00000 0.00000 0.25000 1.0000
Lr6 Lr 2 0.33333 0.66667 0.25000 1.0000
loop_
_topos_bond_atom_site_label_1
_topos_bond_atom_site_label_2
_topos_bond_site_symmetry_1
_topos_bond_site_symmetry_2
_topos_bond_distance
_topos_bond_type
_topos_bond_multiplicity
O1 Si2 1_0_0_0 1_0_0_0 1.6100 V 24
O1 Si1 1_0_0_0 1_0_0_0 1.6100 V 24
O2 Si2 1_0_0_0 1_0_0_0 1.6090 V 24
O2 Si3 1_0_0_0 4_1_1_0 1.6080 V 24
O3 Si4 1_0_0_0 1_0_0_0 1.6100 V 24
O3 Si3 1_0_0_0 1_-1_0_0 1.6100 V 24
O4 Si1 1_0_0_0 1_0_1_0 1.6100 V 24
O5 Si3 1_0_0_0 1_0_0_0 1.6100 V 24
O6 Si1 1_0_0_0 1_0_0_0 1.6100 V 24
O7 Si2 1_0_0_0 1_0_0_0 1.6110 V 24
O8 Si1 1_0_0_0 1_0_0_0 1.6100 V 24
O9 Si2 1_0_0_0 1_0_0_0 1.6080 V 24
O10 Si3 1_0_0_0 1_-1_0_0 1.6090 V 24
O11 Si4 1_0_0_0 1_0_0_0 1.6100 V 24
O12 Si4 1_0_0_0 1_0_0_0 1.6100 V 24
O13 Si4 1_0_0_0 1_0_0_0 1.6100 V 24
Lr2 Lr2 1_0_0_0 7_0_1_2 8.9300 V 6
Lr4 Lr5 1_0_0_0 1_0_0_0 7.4390 V 6
#End of data_19-TOPOS_ANO-PPT1

data_20-TOPOS_APC-PPT1
_audit_creation_date                2025-02-23
_audit_creation_method              ToposPro
_chemical_formula_structural        APC-PPT1
_chemical_formula_sum               'Lr1 O8 Si4'
_citation_special_details
;
Space Group: CMCA->C m c a. File: APC-PPT1.cif. 
;
_cell_length_a                      8.992
_cell_length_b                      19.356
_cell_length_c                      10.392
_cell_angle_alpha                   90
_cell_angle_beta                    90
_cell_angle_gamma                   90
_cell_volume                        1808.719
_cell_formula_units_Z               8
_symmetry_space_group_name_H-M      'C m c a'
_symmetry_Int_Tables_number         64
_refine_ls_R_factor_all             0
loop_
_symmetry_equiv_pos_site_id
_symmetry_equiv_pos_as_xyz
1 x,y,z
2 1/2-x,-y,1/2+z
3 x,-y,-z
4 1/2-x,y,1/2-z
5 -x,-y,-z
6 1/2+x,y,1/2-z
7 -x,y,z
8 1/2+x,-y,1/2+z
9 1/2+x,1/2+y,z
10 -x,1/2-y,1/2+z
11 1/2+x,1/2-y,-z
12 -x,1/2+y,1/2-z
13 1/2-x,1/2-y,-z
14 x,1/2+y,1/2-z
15 1/2-x,1/2+y,z
16 x,1/2-y,1/2+z
loop_
_atom_site_label
_atom_site_type_symbol
_atom_site_symmetry_multiplicity
_atom_site_fract_x
_atom_site_fract_y
_atom_site_fract_z
_atom_site_occupancy
O1 O 16 0.70670 0.37450 0.90790 1.0000
O2 O 8 0.74620 0.50000 0.00000 1.0000
O3 O 8 0.75000 0.47900 0.75000 1.0000
O4 O 8 0.75000 0.27050 0.75000 1.0000
O5 O 8 0.50000 0.46920 0.87800 1.0000
O6 O 8 0.75000 0.25000 0.50000 1.0000
O7 O 8 0.00000 0.27930 0.61960 1.0000
Si1 Si 16 0.67620 0.45530 0.88400 1.0000
Si2 Si 16 0.82380 0.29350 0.61540 1.0000
Lr1 Lr 8 0.50000 0.62512 0.62314 1.0000
loop_
_topos_bond_atom_site_label_1
_topos_bond_atom_site_label_2
_topos_bond_site_symmetry_1
_topos_bond_site_symmetry_2
_topos_bond_distance
_topos_bond_type
_topos_bond_multiplicity
O1 Si1 1_0_0_0 1_0_0_0 1.6070 V 16
O1 Si2 1_0_0_0 4_1_0_1 1.6100 V 16
O2 Si1 1_0_0_0 1_0_0_-1 1.6120 V 16
O3 Si1 1_0_0_0 1_0_0_0 1.6090 V 16
O4 Si2 1_0_0_0 1_0_0_0 1.6110 V 16
O5 Si1 1_0_0_0 1_0_0_0 1.6080 V 16
O6 Si2 1_0_0_0 1_0_0_0 1.6090 V 16
O7 Si2 1_0_0_0 1_-1_0_0 1.6090 V 16
Lr1 Lr1 1_0_0_0 3_0_1_1 5.4780 V 4
Lr1 Lr1 1_0_0_0 4_0_0_1 5.2120 V 8
#End of data_20-TOPOS_APC-PPT1

data_21-TOPOS_APD-NT
_audit_creation_date                2025-02-23
_audit_creation_method              ToposPro
_chemical_formula_structural        APD-NT
_chemical_formula_sum               'Lr7 O16 Si8'
_citation_special_details
;
Space Group: CMCA->C m c a. File: APD-NT.cif. 
;
_cell_length_a                      8.724
_cell_length_b                      20.06
_cell_length_c                      10.166
_cell_angle_alpha                   90
_cell_angle_beta                    90
_cell_angle_gamma                   90
_cell_volume                        1779.085
_cell_formula_units_Z               4
_symmetry_space_group_name_H-M      'C m c a'
_symmetry_Int_Tables_number         64
_refine_ls_R_factor_all             0
loop_
_symmetry_equiv_pos_site_id
_symmetry_equiv_pos_as_xyz
1 x,y,z
2 1/2-x,-y,1/2+z
3 x,-y,-z
4 1/2-x,y,1/2-z
5 -x,-y,-z
6 1/2+x,y,1/2-z
7 -x,y,z
8 1/2+x,-y,1/2+z
9 1/2+x,1/2+y,z
10 -x,1/2-y,1/2+z
11 1/2+x,1/2-y,-z
12 -x,1/2+y,1/2-z
13 1/2-x,1/2-y,-z
14 x,1/2+y,1/2-z
15 1/2-x,1/2+y,z
16 x,1/2-y,1/2+z
loop_
_atom_site_label
_atom_site_type_symbol
_atom_site_symmetry_multiplicity
_atom_site_fract_x
_atom_site_fract_y
_atom_site_fract_z
_atom_site_occupancy
O1 O 16 0.26340 0.12400 0.42990 1.0000
O2 O 8 0.21370 0.00000 0.50000 1.0000
O3 O 8 0.00000 0.06730 0.37420 1.0000
O4 O 8 0.25000 0.03020 0.25000 1.0000
O5 O 8 0.25000 0.21800 0.25000 1.0000
O6 O 8 0.50000 0.20270 0.39060 1.0000
O7 O 8 0.25000 0.25000 0.50000 1.0000
Si1 Si 16 0.18150 0.05520 0.38860 1.0000
Si2 Si 16 0.31600 0.19860 0.39270 1.0000
Lr1 Lr 8 0.00000 0.12500 0.75000 1.0000
Lr2 Lr 8 0.00000 0.18845 0.37398 1.0000
Lr3 Lr 8 0.50000 0.12690 0.25000 1.0000
Lr4 Lr 4 0.00000 0.00000 0.00000 1.0000
loop_
_topos_bond_atom_site_label_1
_topos_bond_atom_site_label_2
_topos_bond_site_symmetry_1
_topos_bond_site_symmetry_2
_topos_bond_distance
_topos_bond_type
_topos_bond_multiplicity
O1 Si1 1_0_0_0 1_0_0_0 1.6100 V 16
O1 Si2 1_0_0_0 1_0_0_0 1.6100 V 16
O2 Si1 1_0_0_0 1_0_0_0 1.6090 V 16
O3 Si1 1_0_0_0 1_0_0_0 1.6090 V 16
O4 Si1 1_0_0_0 1_0_0_0 1.6110 V 16
O5 Si2 1_0_0_0 1_0_0_0 1.6090 V 16
O6 Si2 1_0_0_0 1_0_0_0 1.6070 V 16
O7 Si2 1_0_0_0 1_0_0_0 1.6080 V 16
Lr1 Lr1 1_0_0_0 4_-1_0_1 4.3620 V 8
Lr1 Lr4 1_0_0_0 1_0_0_1 3.5700 V 8
Lr2 Lr3 1_0_0_0 4_0_0_0 1.7640 V 8
#End of data_21-TOPOS_APD-NT

data_22-TOPOS_AST-PPT1
_audit_creation_date                2025-02-23
_audit_creation_method              ToposPro
_chemical_formula_structural        AST-PPT1
_chemical_formula_sum               'Lr1 O10 Si5'
_citation_special_details
;
Space Group: FM-3M->F m -3 m. File: AST-PPT1.cif. 
;
_cell_length_a                      13.624
_cell_length_b                      13.624
_cell_length_c                      13.624
_cell_angle_alpha                   90
_cell_angle_beta                    90
_cell_angle_gamma                   90
_cell_volume                        2528.796
_cell_formula_units_Z               8
_symmetry_space_group_name_H-M      'F m -3 m'
_symmetry_Int_Tables_number         225
_refine_ls_R_factor_all             0
loop_
_symmetry_equiv_pos_site_id
_symmetry_equiv_pos_as_xyz
1 x,y,z
2 -x,-y,z
3 x,-y,-z
4 -x,y,-z
5 z,x,y
6 y,z,x
7 -z,-x,y
8 -y,z,-x
9 z,-x,-y
10 -y,-z,x
11 -z,x,-y
12 y,-z,-x
13 -y,-x,-z
14 y,x,-z
15 y,-x,z
16 -y,x,z
17 -x,-z,-y
18 -z,-y,-x
19 x,z,-y
20 -z,y,x
21 x,-z,y
22 z,y,-x
23 -x,z,y
24 z,-y,x
25 -x,-y,-z
26 x,y,-z
27 -x,y,z
28 x,-y,z
29 -z,-x,-y
30 -y,-z,-x
31 z,x,-y
32 y,-z,x
33 -z,x,y
34 y,z,-x
35 z,-x,y
36 -y,z,x
37 y,x,z
38 -y,-x,z
39 -y,x,-z
40 y,-x,-z
41 x,z,y
42 z,y,x
43 -x,-z,y
44 z,-y,-x
45 -x,z,-y
46 -z,-y,x
47 x,-z,-y
48 -z,y,-x
49 x,1/2+y,1/2+z
50 1/2+x,y,1/2+z
51 1/2+x,1/2+y,z
52 -x,1/2-y,1/2+z
53 1/2-x,-y,1/2+z
54 1/2-x,1/2-y,z
55 x,1/2-y,1/2-z
56 1/2+x,-y,1/2-z
57 1/2+x,1/2-y,-z
58 -x,1/2+y,1/2-z
59 1/2-x,y,1/2-z
60 1/2-x,1/2+y,-z
61 z,1/2+x,1/2+y
62 1/2+z,x,1/2+y
63 1/2+z,1/2+x,y
64 y,1/2+z,1/2+x
65 1/2+y,z,1/2+x
66 1/2+y,1/2+z,x
67 -z,1/2-x,1/2+y
68 1/2-z,-x,1/2+y
69 1/2-z,1/2-x,y
70 -y,1/2+z,1/2-x
71 1/2-y,z,1/2-x
72 1/2-y,1/2+z,-x
73 z,1/2-x,1/2-y
74 1/2+z,-x,1/2-y
75 1/2+z,1/2-x,-y
76 -y,1/2-z,1/2+x
77 1/2-y,-z,1/2+x
78 1/2-y,1/2-z,x
79 -z,1/2+x,1/2-y
80 1/2-z,x,1/2-y
81 1/2-z,1/2+x,-y
82 y,1/2-z,1/2-x
83 1/2+y,-z,1/2-x
84 1/2+y,1/2-z,-x
85 -y,1/2-x,1/2-z
86 1/2-y,-x,1/2-z
87 1/2-y,1/2-x,-z
88 y,1/2+x,1/2-z
89 1/2+y,x,1/2-z
90 1/2+y,1/2+x,-z
91 y,1/2-x,1/2+z
92 1/2+y,-x,1/2+z
93 1/2+y,1/2-x,z
94 -y,1/2+x,1/2+z
95 1/2-y,x,1/2+z
96 1/2-y,1/2+x,z
97 -x,1/2-z,1/2-y
98 1/2-x,-z,1/2-y
99 1/2-x,1/2-z,-y
100 -z,1/2-y,1/2-x
101 1/2-z,-y,1/2-x
102 1/2-z,1/2-y,-x
103 x,1/2+z,1/2-y
104 1/2+x,z,1/2-y
105 1/2+x,1/2+z,-y
106 -z,1/2+y,1/2+x
107 1/2-z,y,1/2+x
108 1/2-z,1/2+y,x
109 x,1/2-z,1/2+y
110 1/2+x,-z,1/2+y
111 1/2+x,1/2-z,y
112 z,1/2+y,1/2-x
113 1/2+z,y,1/2-x
114 1/2+z,1/2+y,-x
115 -x,1/2+z,1/2+y
116 1/2-x,z,1/2+y
117 1/2-x,1/2+z,y
118 z,1/2-y,1/2+x
119 1/2+z,-y,1/2+x
120 1/2+z,1/2-y,x
121 -x,1/2-y,1/2-z
122 1/2-x,-y,1/2-z
123 1/2-x,1/2-y,-z
124 x,1/2+y,1/2-z
125 1/2+x,y,1/2-z
126 1/2+x,1/2+y,-z
127 -x,1/2+y,1/2+z
128 1/2-x,y,1/2+z
129 1/2-x,1/2+y,z
130 x,1/2-y,1/2+z
131 1/2+x,-y,1/2+z
132 1/2+x,1/2-y,z
133 -z,1/2-x,1/2-y
134 1/2-z,-x,1/2-y
135 1/2-z,1/2-x,-y
136 -y,1/2-z,1/2-x
137 1/2-y,-z,1/2-x
138 1/2-y,1/2-z,-x
139 z,1/2+x,1/2-y
140 1/2+z,x,1/2-y
141 1/2+z,1/2+x,-y
142 y,1/2-z,1/2+x
143 1/2+y,-z,1/2+x
144 1/2+y,1/2-z,x
145 -z,1/2+x,1/2+y
146 1/2-z,x,1/2+y
147 1/2-z,1/2+x,y
148 y,1/2+z,1/2-x
149 1/2+y,z,1/2-x
150 1/2+y,1/2+z,-x
151 z,1/2-x,1/2+y
152 1/2+z,-x,1/2+y
153 1/2+z,1/2-x,y
154 -y,1/2+z,1/2+x
155 1/2-y,z,1/2+x
156 1/2-y,1/2+z,x
157 y,1/2+x,1/2+z
158 1/2+y,x,1/2+z
159 1/2+y,1/2+x,z
160 -y,1/2-x,1/2+z
161 1/2-y,-x,1/2+z
162 1/2-y,1/2-x,z
163 -y,1/2+x,1/2-z
164 1/2-y,x,1/2-z
165 1/2-y,1/2+x,-z
166 y,1/2-x,1/2-z
167 1/2+y,-x,1/2-z
168 1/2+y,1/2-x,-z
169 x,1/2+z,1/2+y
170 1/2+x,z,1/2+y
171 1/2+x,1/2+z,y
172 z,1/2+y,1/2+x
173 1/2+z,y,1/2+x
174 1/2+z,1/2+y,x
175 -x,1/2-z,1/2+y
176 1/2-x,-z,1/2+y
177 1/2-x,1/2-z,y
178 z,1/2-y,1/2-x
179 1/2+z,-y,1/2-x
180 1/2+z,1/2-y,-x
181 -x,1/2+z,1/2-y
182 1/2-x,z,1/2-y
183 1/2-x,1/2+z,-y
184 -z,1/2-y,1/2+x
185 1/2-z,-y,1/2+x
186 1/2-z,1/2-y,x
187 x,1/2-z,1/2-y
188 1/2+x,-z,1/2-y
189 1/2+x,1/2-z,-y
190 -z,1/2+y,1/2-x
191 1/2-z,y,1/2-x
192 1/2-z,1/2+y,-x
loop_
_atom_site_label
_atom_site_type_symbol
_atom_site_symmetry_multiplicity
_atom_site_fract_x
_atom_site_fract_y
_atom_site_fract_z
_atom_site_occupancy
O1 O 48 0.13650 0.13650 0.00000 1.0000
O2 O 32 0.18180 0.18180 0.18180 1.0000
Si1 Si 32 0.11370 0.11370 0.11370 1.0000
Si2 Si 8 0.75000 0.25000 0.25000 1.0000
Lr1 Lr 4 0.00000 0.00000 0.00000 1.0000
Lr2 Lr 4 0.00000 0.50000 0.00000 1.0000
loop_
_topos_bond_atom_site_label_1
_topos_bond_atom_site_label_2
_topos_bond_site_symmetry_1
_topos_bond_site_symmetry_2
_topos_bond_distance
_topos_bond_type
_topos_bond_multiplicity
O1 Si1 1_0_0_0 14_0_0_0 1.6100 V 96
O2 Si1 1_0_0_0 1_0_0_0 1.6070 V 32
O2 Si2 1_0_0_0 15_0_1_0 1.6090 V 32
#End of data_22-TOPOS_AST-PPT1

data_23-TOPOS_ASV-PPT1
_audit_creation_date                2025-02-23
_audit_creation_method              ToposPro
_chemical_formula_structural        ASV-PPT1
_chemical_formula_sum               'Lr2 O10 Si5'
_citation_special_details
;
Space Group: P4/MCC->P 4/m c c. File: ASV-PPT1.cif. 
;
_cell_length_a                      8.674
_cell_length_b                      8.674
_cell_length_c                      13.919
_cell_angle_alpha                   90
_cell_angle_beta                    90
_cell_angle_gamma                   90
_cell_volume                        1047.241
_cell_formula_units_Z               4
_symmetry_space_group_name_H-M      'P 4/m c c'
_symmetry_Int_Tables_number         124
_refine_ls_R_factor_all             0
loop_
_symmetry_equiv_pos_site_id
_symmetry_equiv_pos_as_xyz
1 x,y,z
2 -x,-y,z
3 x,-y,1/2-z
4 -x,y,1/2-z
5 -y,-x,1/2-z
6 y,x,1/2-z
7 y,-x,z
8 -y,x,z
9 -x,-y,-z
10 x,y,-z
11 -x,y,1/2+z
12 x,-y,1/2+z
13 y,x,1/2+z
14 -y,-x,1/2+z
15 -y,x,-z
16 y,-x,-z
loop_
_atom_site_label
_atom_site_type_symbol
_atom_site_symmetry_multiplicity
_atom_site_fract_x
_atom_site_fract_y
_atom_site_fract_z
_atom_site_occupancy
O1 O 16 0.10890 0.60740 0.31780 1.0000
O2 O 16 0.39380 0.31100 0.13210 1.0000
O3 O 8 0.19850 0.41550 0.00000 1.0000
Si1 Si 16 0.25340 0.43080 0.11140 1.0000
Si2 Si 4 0.00000 0.50000 0.25000 1.0000
Lr1 Lr 2 0.50000 0.50000 0.00000 1.0000
Lr2 Lr 2 0.00000 0.00000 0.00000 1.0000
Lr3 Lr 2 0.50000 0.50000 0.25000 1.0000
Lr4 Lr 2 0.00000 0.00000 0.25000 1.0000
loop_
_topos_bond_atom_site_label_1
_topos_bond_atom_site_label_2
_topos_bond_site_symmetry_1
_topos_bond_site_symmetry_2
_topos_bond_distance
_topos_bond_type
_topos_bond_multiplicity
O1 Si2 1_0_0_0 1_0_0_0 1.6280 V 16
O1 Si1 1_0_0_0 3_0_1_0 1.6280 V 16
O2 Si1 1_0_0_0 1_0_0_0 1.6270 V 16
O2 Si1 1_0_0_0 8_1_0_0 1.6270 V 16
O3 Si1 1_0_0_0 1_0_0_0 1.6270 V 16
Lr2 Lr4 1_0_0_0 9_0_0_0 3.4800 V 4
#End of data_23-TOPOS_ASV-PPT1

data_24-TOPOS_ATN-PPT1
_audit_creation_date                2025-02-23
_audit_creation_method              ToposPro
_chemical_formula_structural        ATN-PPT1
_chemical_formula_sum               'Lr3 O16 Si8'
_citation_special_details
;
Space Group: I4/MMM->I 4/m m m. File: ATN-PPT1.cif. 
;
_cell_length_a                      13.071
_cell_length_b                      13.071
_cell_length_c                      5.256
_cell_angle_alpha                   90
_cell_angle_beta                    90
_cell_angle_gamma                   90
_cell_volume                        897.9931
_cell_formula_units_Z               2
_symmetry_space_group_name_H-M      'I 4/m m m'
_symmetry_Int_Tables_number         139
_refine_ls_R_factor_all             0
loop_
_symmetry_equiv_pos_site_id
_symmetry_equiv_pos_as_xyz
1 x,y,z
2 -x,-y,z
3 x,-y,-z
4 -x,y,-z
5 -y,-x,-z
6 y,x,-z
7 y,-x,z
8 -y,x,z
9 -x,-y,-z
10 x,y,-z
11 -x,y,z
12 x,-y,z
13 y,x,z
14 -y,-x,z
15 -y,x,-z
16 y,-x,-z
17 1/2+x,1/2+y,1/2+z
18 1/2-x,1/2-y,1/2+z
19 1/2+x,1/2-y,1/2-z
20 1/2-x,1/2+y,1/2-z
21 1/2-y,1/2-x,1/2-z
22 1/2+y,1/2+x,1/2-z
23 1/2+y,1/2-x,1/2+z
24 1/2-y,1/2+x,1/2+z
25 1/2-x,1/2-y,1/2-z
26 1/2+x,1/2+y,1/2-z
27 1/2-x,1/2+y,1/2+z
28 1/2+x,1/2-y,1/2+z
29 1/2+y,1/2+x,1/2+z
30 1/2-y,1/2-x,1/2+z
31 1/2-y,1/2+x,1/2-z
32 1/2+y,1/2-x,1/2-z
loop_
_atom_site_label
_atom_site_type_symbol
_atom_site_symmetry_multiplicity
_atom_site_fract_x
_atom_site_fract_y
_atom_site_fract_z
_atom_site_occupancy
O1 O 16 0.35670 0.14330 0.75000 1.0000
O2 O 8 0.50000 0.24190 0.00000 1.0000
O3 O 8 0.31180 0.31180 0.00000 1.0000
Si1 Si 16 0.38100 0.21010 0.00000 1.0000
Lr1 Lr 2 0.00000 0.00000 0.00000 1.0000
Lr2 Lr 4 0.50000 0.00000 0.50000 1.0000
loop_
_topos_bond_atom_site_label_1
_topos_bond_atom_site_label_2
_topos_bond_site_symmetry_1
_topos_bond_site_symmetry_2
_topos_bond_distance
_topos_bond_type
_topos_bond_multiplicity
O1 Si1 1_0_0_0 1_0_0_1 1.6090 V 32
O2 Si1 1_0_0_0 1_0_0_0 1.6100 V 16
O3 Si1 1_0_0_0 1_0_0_0 1.6080 V 16
Lr1 Lr1 1_0_0_0 1_0_0_1 5.2560 V 2
Lr2 Lr2 1_0_0_0 21_0_0_0 2.6280 V 4
#End of data_24-TOPOS_ATN-PPT1

data_25-TOPOS_ATO-PPT1
_audit_creation_date                2025-02-23
_audit_creation_method              ToposPro
_chemical_formula_structural        ATO-PPT1
_chemical_formula_sum               'Lr11 O24 Si12'
_citation_special_details
;
Space Group: R-3M->R -3 m. File: ATO-PPT1.cif. 
;
_cell_length_a                      20.914
_cell_length_b                      20.914
_cell_length_c                      5.061
_cell_angle_alpha                   90
_cell_angle_beta                    90
_cell_angle_gamma                   120
_cell_volume                        1917.084
_cell_formula_units_Z               3
_symmetry_space_group_name_H-M      'R -3 m'
_symmetry_Int_Tables_number         166
_refine_ls_R_factor_all             0
loop_
_symmetry_equiv_pos_site_id
_symmetry_equiv_pos_as_xyz
1 x,y,z
2 -y,x-y,z
3 -x+y,-x,z
4 x-y,-y,-z
5 -x,-x+y,-z
6 y,x,-z
7 -x,-y,-z
8 y,-x+y,-z
9 x-y,x,-z
10 -x+y,y,z
11 x,x-y,z
12 -y,-x,z
13 2/3+x,1/3+y,1/3+z
14 1/3+x,2/3+y,2/3+z
15 2/3-y,1/3+x-y,1/3+z
16 1/3-y,2/3+x-y,2/3+z
17 2/3-x+y,1/3-x,1/3+z
18 1/3-x+y,2/3-x,2/3+z
19 2/3+x-y,1/3-y,1/3-z
20 1/3+x-y,2/3-y,2/3-z
21 2/3-x,1/3-x+y,1/3-z
22 1/3-x,2/3-x+y,2/3-z
23 2/3+y,1/3+x,1/3-z
24 1/3+y,2/3+x,2/3-z
25 2/3-x,1/3-y,1/3-z
26 1/3-x,2/3-y,2/3-z
27 2/3+y,1/3-x+y,1/3-z
28 1/3+y,2/3-x+y,2/3-z
29 2/3+x-y,1/3+x,1/3-z
30 1/3+x-y,2/3+x,2/3-z
31 2/3-x+y,1/3+y,1/3+z
32 1/3-x+y,2/3+y,2/3+z
33 2/3+x,1/3+x-y,1/3+z
34 1/3+x,2/3+x-y,2/3+z
35 2/3-y,1/3-x,1/3+z
36 1/3-y,2/3-x,2/3+z
loop_
_atom_site_label
_atom_site_type_symbol
_atom_site_symmetry_multiplicity
_atom_site_fract_x
_atom_site_fract_y
_atom_site_fract_z
_atom_site_occupancy
O1 O 18 0.66667 0.13468 0.83333 1.0000
O2 O 18 0.57600 0.00000 0.00000 1.0000
O3 O 18 0.55445 0.10890 0.13820 1.0000
O4 O 18 0.66667 0.10058 0.33333 1.0000
Si1 Si 36 0.61600 0.08610 0.07630 1.0000
Lr1 Lr 9 0.50000 0.00000 0.50000 1.0000
Lr2 Lr 6 0.66667 0.33333 0.58099 1.0000
Lr3 Lr 18 0.64324 0.00000 0.50000 1.0000
loop_
_topos_bond_atom_site_label_1
_topos_bond_atom_site_label_2
_topos_bond_site_symmetry_1
_topos_bond_site_symmetry_2
_topos_bond_distance
_topos_bond_type
_topos_bond_multiplicity
O1 Si1 1_0_0_0 1_0_0_1 1.6100 V 36
O2 Si1 1_0_0_0 1_0_0_0 1.6080 V 36
O3 Si1 1_0_0_0 1_0_0_0 1.6110 V 36
O4 Si1 1_0_0_0 1_0_0_0 1.6080 V 36
Lr1 Lr3 1_0_0_0 1_0_0_0 2.9960 V 18
Lr2 Lr2 1_0_0_0 20_0_0_1 2.5540 V 3
Lr2 Lr2 1_0_0_0 20_0_0_0 2.5070 V 3
Lr3 Lr3 1_0_0_0 15_0_-1_0 1.8880 V 18
#End of data_25-TOPOS_ATO-PPT1

data_26-TOPOS_ATS-PPT1
_audit_creation_date                2025-02-23
_audit_creation_method              ToposPro
_chemical_formula_structural        ATS-PPT1
_chemical_formula_sum               'Lr1 O4 Si2'
_citation_special_details
;
Space Group: CMCM->C m c m. File: ATS-PPT1.cif. 
;
_cell_length_a                      13.164
_cell_length_b                      21.584
_cell_length_c                      5.257
_cell_angle_alpha                   90
_cell_angle_beta                    90
_cell_angle_gamma                   90
_cell_volume                        1493.681
_cell_formula_units_Z               12
_symmetry_space_group_name_H-M      'C m c m'
_symmetry_Int_Tables_number         63
_refine_ls_R_factor_all             0
loop_
_symmetry_equiv_pos_site_id
_symmetry_equiv_pos_as_xyz
1 x,y,z
2 -x,-y,1/2+z
3 x,-y,-z
4 -x,y,1/2-z
5 -x,-y,-z
6 x,y,1/2-z
7 -x,y,z
8 x,-y,1/2+z
9 1/2+x,1/2+y,z
10 1/2-x,1/2-y,1/2+z
11 1/2+x,1/2-y,-z
12 1/2-x,1/2+y,1/2-z
13 1/2-x,1/2-y,-z
14 1/2+x,1/2+y,1/2-z
15 1/2-x,1/2+y,z
16 1/2+x,1/2-y,1/2+z
loop_
_atom_site_label
_atom_site_type_symbol
_atom_site_symmetry_multiplicity
_atom_site_fract_x
_atom_site_fract_y
_atom_site_fract_z
_atom_site_occupancy
O1 O 16 0.36450 0.20150 0.00000 1.0000
O2 O 8 0.68860 0.10120 0.75000 1.0000
O3 O 8 0.19150 0.19860 0.75000 1.0000
O4 O 8 0.64110 0.00000 0.50000 1.0000
O5 O 4 0.50000 0.06120 0.75000 1.0000
O6 O 4 0.50000 0.26680 0.25000 1.0000
Si1 Si 8 0.61740 0.04050 0.75000 1.0000
Si2 Si 8 0.30790 0.17580 0.75000 1.0000
Si3 Si 8 0.61590 0.24280 0.25000 1.0000
Lr1 Lr 4 0.50000 0.89418 0.75000 1.0000
Lr2 Lr 4 0.50000 0.40541 0.75000 1.0000
Lr3 Lr 4 0.50000 0.17548 0.75000 1.0000
loop_
_topos_bond_atom_site_label_1
_topos_bond_atom_site_label_2
_topos_bond_site_symmetry_1
_topos_bond_site_symmetry_2
_topos_bond_distance
_topos_bond_type
_topos_bond_multiplicity
O1 Si3 1_0_0_0 4_1_0_0 1.6090 V 16
O1 Si2 1_0_0_0 1_0_0_-1 1.6090 V 16
O2 Si1 1_0_0_0 1_0_0_0 1.6110 V 8
O2 Si2 1_0_0_0 4_1_0_1 1.6110 V 8
O3 Si2 1_0_0_0 1_0_0_0 1.6090 V 8
O3 Si3 1_0_0_0 11_-1_0_1 1.6090 V 8
O4 Si1 1_0_0_0 1_0_0_0 1.6090 V 16
O5 Si1 1_0_0_0 1_0_0_0 1.6090 V 8
O6 Si3 1_0_0_0 1_0_0_0 1.6110 V 8
Lr2 Lr2 1_0_0_0 2_1_1_0 4.8560 V 4
#End of data_26-TOPOS_ATS-PPT1

data_27-TOPOS_ATT-PPT1
_audit_creation_date                2025-02-23
_audit_creation_method              ToposPro
_chemical_formula_structural        ATT-PPT1
_chemical_formula_sum               'Lr1 O6 Si3'
_citation_special_details
;
Space Group: PMMA->P m m a. File: ATT-PPT1.cif. 
;
_cell_length_a                      9.98
_cell_length_b                      7.514
_cell_length_c                      9.369
_cell_angle_alpha                   90
_cell_angle_beta                    90
_cell_angle_gamma                   90
_cell_volume                        702.5787
_cell_formula_units_Z               4
_symmetry_space_group_name_H-M      'P m m a'
_symmetry_Int_Tables_number         51
_refine_ls_R_factor_all             0
loop_
_symmetry_equiv_pos_site_id
_symmetry_equiv_pos_as_xyz
1 x,y,z
2 1/2-x,-y,z
3 1/2+x,-y,-z
4 -x,y,-z
5 -x,-y,-z
6 1/2+x,y,-z
7 1/2-x,y,z
8 x,-y,z
loop_
_atom_site_label
_atom_site_type_symbol
_atom_site_symmetry_multiplicity
_atom_site_fract_x
_atom_site_fract_y
_atom_site_fract_z
_atom_site_occupancy
O1 O 8 0.06650 0.32510 0.23220 1.0000
O2 O 4 0.25000 0.22810 0.41800 1.0000
O3 O 4 0.06580 0.00000 0.33550 1.0000
O4 O 4 0.00000 0.26960 0.50000 1.0000
O5 O 2 0.00000 0.50000 0.00000 1.0000
O6 O 2 0.25000 0.50000 0.08790 1.0000
Si1 Si 8 0.09570 0.20570 0.37150 1.0000
Si2 Si 4 0.09570 0.50000 0.13800 1.0000
Lr1 Lr 2 0.25000 0.50000 0.59114 1.0000
Lr2 Lr 2 0.25000 0.00000 0.87430 1.0000
loop_
_topos_bond_atom_site_label_1
_topos_bond_atom_site_label_2
_topos_bond_site_symmetry_1
_topos_bond_site_symmetry_2
_topos_bond_distance
_topos_bond_type
_topos_bond_multiplicity
O1 Si2 1_0_0_0 1_0_0_0 1.6100 V 8
O1 Si1 1_0_0_0 1_0_0_0 1.6100 V 8
O2 Si1 1_0_0_0 1_0_0_0 1.6090 V 8
O3 Si1 1_0_0_0 1_0_0_0 1.6100 V 8
O4 Si1 1_0_0_0 1_0_0_0 1.6100 V 8
O5 Si2 1_0_0_0 1_0_0_0 1.6070 V 4
O6 Si2 1_0_0_0 1_0_0_0 1.6100 V 4
Lr1 Lr2 1_0_0_0 1_0_0_0 4.5990 V 4
Lr2 Lr2 1_0_0_0 3_-1_0_2 5.5180 V 2
#End of data_27-TOPOS_ATT-PPT1

data_28-TOPOS_ATV-PPT1
_audit_creation_date                2025-02-23
_audit_creation_method              ToposPro
_chemical_formula_structural        ATV-PPT1
_chemical_formula_sum               'Lr1 O2 Si1'
_citation_special_details
;
Space Group: CMMA->C m m a. File: ATV-PPT1.cif. 
;
_cell_length_a                      8.579
_cell_length_b                      15.311
_cell_length_c                      9.661
_cell_angle_alpha                   90
_cell_angle_beta                    90
_cell_angle_gamma                   90
_cell_volume                        1269.002
_cell_formula_units_Z               24
_symmetry_space_group_name_H-M      'C m m a'
_symmetry_Int_Tables_number         67
_refine_ls_R_factor_all             0
loop_
_symmetry_equiv_pos_site_id
_symmetry_equiv_pos_as_xyz
1 x,y,z
2 1/2-x,-y,z
3 x,-y,-z
4 1/2-x,y,-z
5 -x,-y,-z
6 1/2+x,y,-z
7 -x,y,z
8 1/2+x,-y,z
9 1/2+x,1/2+y,z
10 -x,1/2-y,z
11 1/2+x,1/2-y,-z
12 -x,1/2+y,-z
13 1/2-x,1/2-y,-z
14 x,1/2+y,-z
15 1/2-x,1/2+y,z
16 x,1/2-y,z
loop_
_atom_site_label
_atom_site_type_symbol
_atom_site_symmetry_multiplicity
_atom_site_fract_x
_atom_site_fract_y
_atom_site_fract_z
_atom_site_occupancy
O1 O 16 0.24980 0.16420 0.23510 1.0000
O2 O 8 0.25000 0.12510 0.50000 1.0000
O3 O 8 0.25000 0.00000 0.31330 1.0000
O4 O 8 0.00000 0.09630 0.34980 1.0000
O5 O 4 0.50000 0.25000 0.15720 1.0000
O6 O 4 0.25000 0.25000 0.00000 1.0000
Si1 Si 16 0.18740 0.09630 0.34970 1.0000
Si2 Si 8 0.31260 0.25000 0.15680 1.0000
Lr1 Lr 8 0.00000 0.91343 0.37663 1.0000
Lr2 Lr 4 0.00000 0.00000 0.50000 1.0000
Lr3 Lr 4 0.00000 0.00000 0.00000 1.0000
Lr4 Lr 4 0.00000 0.25000 0.50000 1.0000
Lr5 Lr 4 0.00000 0.25000 0.17485 1.0000
loop_
_topos_bond_atom_site_label_1
_topos_bond_atom_site_label_2
_topos_bond_site_symmetry_1
_topos_bond_site_symmetry_2
_topos_bond_distance
_topos_bond_type
_topos_bond_multiplicity
O1 Si2 1_0_0_0 1_0_0_0 1.6090 V 16
O1 Si1 1_0_0_0 1_0_0_0 1.6100 V 16
O2 Si1 1_0_0_0 1_0_0_0 1.6100 V 16
O3 Si1 1_0_0_0 1_0_0_0 1.6080 V 16
O4 Si1 1_0_0_0 1_0_0_0 1.6080 V 16
O5 Si2 1_0_0_0 1_0_0_0 1.6080 V 8
O6 Si2 1_0_0_0 1_0_0_0 1.6070 V 8
Lr1 Lr2 1_0_0_0 1_0_1_0 1.7830 V 8
Lr1 Lr4 1_0_0_0 3_0_1_1 2.7720 V 8
Lr3 Lr3 1_0_0_0 2_0_0_0 4.2900 V 4
#End of data_28-TOPOS_ATV-PPT1

data_29-TOPOS_AVE-PPT1
_audit_creation_date                2025-02-23
_audit_creation_method              ToposPro
_chemical_formula_structural        AVE-PPT1
_chemical_formula_sum               'Lr1 O12 Si6'
_citation_special_details
;
Space Group: R-3M->R -3 m. File: AVE-PPT1.cif. 
;
_cell_length_a                      12.88
_cell_length_b                      12.88
_cell_length_c                      60.6099
_cell_angle_alpha                   90
_cell_angle_beta                    90
_cell_angle_gamma                   120
_cell_volume                        8707.75
_cell_formula_units_Z               24
_symmetry_space_group_name_H-M      'R -3 m'
_symmetry_Int_Tables_number         166
_refine_ls_R_factor_all             0
loop_
_symmetry_equiv_pos_site_id
_symmetry_equiv_pos_as_xyz
1 x,y,z
2 -y,x-y,z
3 -x+y,-x,z
4 x-y,-y,-z
5 -x,-x+y,-z
6 y,x,-z
7 -x,-y,-z
8 y,-x+y,-z
9 x-y,x,-z
10 -x+y,y,z
11 x,x-y,z
12 -y,-x,z
13 2/3+x,1/3+y,1/3+z
14 1/3+x,2/3+y,2/3+z
15 2/3-y,1/3+x-y,1/3+z
16 1/3-y,2/3+x-y,2/3+z
17 2/3-x+y,1/3-x,1/3+z
18 1/3-x+y,2/3-x,2/3+z
19 2/3+x-y,1/3-y,1/3-z
20 1/3+x-y,2/3-y,2/3-z
21 2/3-x,1/3-x+y,1/3-z
22 1/3-x,2/3-x+y,2/3-z
23 2/3+y,1/3+x,1/3-z
24 1/3+y,2/3+x,2/3-z
25 2/3-x,1/3-y,1/3-z
26 1/3-x,2/3-y,2/3-z
27 2/3+y,1/3-x+y,1/3-z
28 1/3+y,2/3-x+y,2/3-z
29 2/3+x-y,1/3+x,1/3-z
30 1/3+x-y,2/3+x,2/3-z
31 2/3-x+y,1/3+y,1/3+z
32 1/3-x+y,2/3+y,2/3+z
33 2/3+x,1/3+x-y,1/3+z
34 1/3+x,2/3+x-y,2/3+z
35 2/3-y,1/3-x,1/3+z
36 1/3-y,2/3-x,2/3+z
loop_
_atom_site_label
_atom_site_type_symbol
_atom_site_symmetry_multiplicity
_atom_site_fract_x
_atom_site_fract_y
_atom_site_fract_z
_atom_site_occupancy
O1 O 36 0.31927 0.35346 0.04069 1.0000
O2 O 36 0.37034 0.37450 0.91728 1.0000
O3 O 36 0.36441 0.34474 0.12584 1.0000
O4 O 18 0.09870 0.19740 0.02896 1.0000
O5 O 18 0.27354 0.27354 0.00000 1.0000
O6 O 18 0.26032 0.13016 0.03215 1.0000
O7 O 18 0.41734 0.20867 0.93048 1.0000
O8 O 18 0.40422 0.20211 0.10064 1.0000
O9 O 18 0.40768 0.20384 0.86533 1.0000
O10 O 18 0.56530 0.43470 0.94036 1.0000
O11 O 18 0.57051 0.42949 0.10519 1.0000
O12 O 18 0.56644 0.43356 0.86236 1.0000
O13 O 18 0.39185 0.33333 0.83333 1.0000
Si1 Si 36 0.23794 0.23838 0.02547 1.0000
Si2 Si 36 0.42679 0.33432 0.93691 1.0000
Si3 Si 36 0.42860 0.33652 0.10365 1.0000
Si4 Si 36 0.42782 0.33376 0.85878 1.0000
Lr1 Lr 3 0.00000 0.00000 0.00000 1.0000
Lr2 Lr 6 0.66667 0.33333 0.02073 1.0000
Lr3 Lr 6 0.66667 0.33333 0.89735 1.0000
Lr4 Lr 6 0.00000 0.00000 0.12587 1.0000
Lr5 Lr 3 0.66667 0.33333 0.83333 1.0000
loop_
_topos_bond_atom_site_label_1
_topos_bond_atom_site_label_2
_topos_bond_site_symmetry_1
_topos_bond_site_symmetry_2
_topos_bond_distance
_topos_bond_type
_topos_bond_multiplicity
O1 Si1 1_0_0_0 1_0_0_0 1.6100 V 36
O1 Si2 1_0_0_0 6_0_0_1 1.6090 V 36
O2 Si2 1_0_0_0 1_0_0_0 1.6090 V 36
O2 Si3 1_0_0_0 6_0_0_1 1.6090 V 36
O3 Si3 1_0_0_0 1_0_0_0 1.6100 V 36
O3 Si4 1_0_0_0 6_0_0_1 1.6100 V 36
O4 Si1 1_0_0_0 1_0_0_0 1.6100 V 36
O5 Si1 1_0_0_0 1_0_0_0 1.6100 V 36
O6 Si1 1_0_0_0 1_0_0_0 1.6100 V 36
O7 Si2 1_0_0_0 1_0_0_0 1.6090 V 36
O8 Si3 1_0_0_0 1_0_0_0 1.6080 V 36
O9 Si4 1_0_0_0 1_0_0_0 1.6100 V 36
O10 Si2 1_0_0_0 1_0_0_0 1.6100 V 36
O11 Si3 1_0_0_0 1_0_0_0 1.6110 V 36
O12 Si4 1_0_0_0 1_0_0_0 1.6100 V 36
O13 Si4 1_0_0_0 1_0_0_0 1.6100 V 36
Lr2 Lr2 1_0_0_0 4_1_1_0 7.8490 V 9
Lr4 Lr4 1_0_0_0 19_0_0_0 8.9310 V 9
#End of data_29-TOPOS_AVE-PPT1

data_30-TOPOS_AVL-PPT1
_audit_creation_date                2025-02-23
_audit_creation_method              ToposPro
_chemical_formula_structural        AVL-PPT1
_chemical_formula_sum               'Lr1 O12 Si6'
_citation_special_details
;
Space Group: P-3M1->P -3 m 1. File: AVL-PPT1.cif. 
;
_cell_length_a                      13.2381
_cell_length_b                      13.2381
_cell_length_c                      17.482
_cell_angle_alpha                   90
_cell_angle_beta                    90
_cell_angle_gamma                   120
_cell_volume                        2653.219
_cell_formula_units_Z               7
_symmetry_space_group_name_H-M      'P -3 m 1'
_symmetry_Int_Tables_number         164
_refine_ls_R_factor_all             0
loop_
_symmetry_equiv_pos_site_id
_symmetry_equiv_pos_as_xyz
1 x,y,z
2 -y,x-y,z
3 -x+y,-x,z
4 x-y,-y,-z
5 -x,-x+y,-z
6 y,x,-z
7 -x,-y,-z
8 y,-x+y,-z
9 x-y,x,-z
10 -x+y,y,z
11 x,x-y,z
12 -y,-x,z
loop_
_atom_site_label
_atom_site_type_symbol
_atom_site_symmetry_multiplicity
_atom_site_fract_x
_atom_site_fract_y
_atom_site_fract_z
_atom_site_occupancy
O1 O 12 0.99730 0.33170 0.35490 1.0000
O2 O 12 0.02580 0.32150 0.07290 1.0000
O3 O 12 0.05980 0.40330 0.21250 1.0000
O4 O 6 0.11555 0.23110 0.39590 1.0000
O5 O 6 0.23740 0.47480 0.11830 1.0000
O6 O 6 0.21730 0.43460 0.31630 1.0000
O7 O 6 0.88770 0.11230 0.39670 1.0000
O8 O 6 0.88830 0.11170 0.01700 1.0000
O9 O 6 0.00000 0.27670 0.50000 1.0000
O10 O 6 0.08220 0.54110 0.09800 1.0000
O11 O 6 0.11030 0.55515 0.32410 1.0000
Si1 Si 12 0.99980 0.23820 0.41270 1.0000
Si2 Si 12 0.10130 0.43540 0.12490 1.0000
Si3 Si 12 0.09570 0.43090 0.30110 1.0000
Si4 Si 6 0.00000 0.23770 0.00000 1.0000
Lr1 Lr 1 0.00000 0.00000 0.50000 1.0000
Lr2 Lr 2 0.66667 0.33333 0.28571 1.0000
Lr3 Lr 2 0.00000 0.00000 0.20967 1.0000
Lr4 Lr 2 0.33333 0.66667 0.21300 1.0000
loop_
_topos_bond_atom_site_label_1
_topos_bond_atom_site_label_2
_topos_bond_site_symmetry_1
_topos_bond_site_symmetry_2
_topos_bond_distance
_topos_bond_type
_topos_bond_multiplicity
O1 Si1 1_0_0_0 1_0_0_0 1.6110 V 12
O1 Si3 1_0_0_0 1_1_0_0 1.6110 V 12
O2 Si2 1_0_0_0 1_0_0_0 1.6100 V 12
O2 Si4 1_0_0_0 1_0_0_0 1.6100 V 12
O3 Si3 1_0_0_0 1_0_0_0 1.6080 V 12
O3 Si2 1_0_0_0 1_0_0_0 1.6110 V 12
O4 Si1 1_0_0_0 1_-1_0_0 1.6080 V 12
O5 Si2 1_0_0_0 1_0_0_0 1.6100 V 12
O6 Si3 1_0_0_0 1_0_0_0 1.6080 V 12
O7 Si1 1_0_0_0 1_0_0_0 1.6080 V 12
O8 Si4 1_0_0_0 1_1_0_0 1.6100 V 12
O9 Si1 1_0_0_0 1_-1_0_0 1.6090 V 12
O10 Si2 1_0_0_0 1_0_0_0 1.6110 V 12
O11 Si3 1_0_0_0 1_0_0_0 1.6080 V 12
Lr2 Lr3 1_0_0_0 1_0_0_0 7.7580 V 6
Lr2 Lr2 1_0_0_0 4_0_0_1 10.7030 V 3
#End of data_30-TOPOS_AVL-PPT1

data_31-TOPOS_AWO-PPT1
_audit_creation_date                2025-02-23
_audit_creation_method              ToposPro
_chemical_formula_structural        AWO-PPT1
_chemical_formula_sum               'Lr1 O12 Si6'
_citation_special_details
;
Space Group: CMCA->C m c a. File: AWO-PPT1.cif. 
;
_cell_length_a                      9.101
_cell_length_b                      15.035
_cell_length_c                      19.241
_cell_angle_alpha                   90
_cell_angle_beta                    90
_cell_angle_gamma                   90
_cell_volume                        2632.814
_cell_formula_units_Z               8
_symmetry_space_group_name_H-M      'C m c a'
_symmetry_Int_Tables_number         64
_refine_ls_R_factor_all             0
loop_
_symmetry_equiv_pos_site_id
_symmetry_equiv_pos_as_xyz
1 x,y,z
2 1/2-x,-y,1/2+z
3 x,-y,-z
4 1/2-x,y,1/2-z
5 -x,-y,-z
6 1/2+x,y,1/2-z
7 -x,y,z
8 1/2+x,-y,1/2+z
9 1/2+x,1/2+y,z
10 -x,1/2-y,1/2+z
11 1/2+x,1/2-y,-z
12 -x,1/2+y,1/2-z
13 1/2-x,1/2-y,-z
14 x,1/2+y,1/2-z
15 1/2-x,1/2+y,z
16 x,1/2-y,1/2+z
loop_
_atom_site_label
_atom_site_type_symbol
_atom_site_symmetry_multiplicity
_atom_site_fract_x
_atom_site_fract_y
_atom_site_fract_z
_atom_site_occupancy
O1 O 16 0.72740 0.75600 0.33680 1.0000
O2 O 16 0.72990 0.91960 0.38420 1.0000
O3 O 16 0.71920 0.09130 0.11580 1.0000
O4 O 8 0.75000 0.88980 0.25000 1.0000
O5 O 8 0.75000 0.12110 0.25000 1.0000
O6 O 8 0.50000 0.86070 0.31490 1.0000
O7 O 8 0.50000 0.97890 0.09930 1.0000
O8 O 8 0.69570 0.00000 0.00000 1.0000
O9 O 8 0.00000 0.15460 0.31080 1.0000
Si1 Si 16 0.67600 0.85670 0.32150 1.0000
Si2 Si 16 0.67060 0.99730 0.08270 1.0000
Si3 Si 16 0.82480 0.15580 0.32080 1.0000
Lr1 Lr 8 0.50000 0.82898 0.61997 1.0000
loop_
_topos_bond_atom_site_label_1
_topos_bond_atom_site_label_2
_topos_bond_site_symmetry_1
_topos_bond_site_symmetry_2
_topos_bond_distance
_topos_bond_type
_topos_bond_multiplicity
O1 Si1 1_0_0_0 1_0_0_0 1.6120 V 16
O1 Si3 1_0_0_0 15_1_0_0 1.6090 V 16
O2 Si1 1_0_0_0 1_0_0_0 1.6090 V 16
O2 Si2 1_0_0_0 4_1_0_0 1.6090 V 16
O3 Si3 1_0_0_0 4_1_0_0 1.6090 V 16
O3 Si2 1_0_0_0 1_0_-1_0 1.6120 V 16
O4 Si1 1_0_0_0 1_0_0_0 1.6110 V 16
O5 Si3 1_0_0_0 1_0_0_0 1.6100 V 16
O6 Si1 1_0_0_0 1_0_0_0 1.6080 V 16
O7 Si2 1_0_0_0 1_0_0_0 1.6090 V 16
O8 Si2 1_0_0_0 1_0_-1_0 1.6080 V 16
O9 Si3 1_0_0_0 1_-1_0_0 1.6060 V 16
Lr1 Lr1 1_0_0_0 3_0_2_1 6.9110 V 4
Lr1 Lr1 1_0_0_0 11_-1_1_1 6.9040 V 8
#End of data_31-TOPOS_AWO-PPT1

data_32-TOPOS_AWW-PPT1
_audit_creation_date                2025-02-23
_audit_creation_method              ToposPro
_chemical_formula_structural        AWW-PPT1
_chemical_formula_sum               'Lr1 O12 Si6'
_citation_special_details
;
Space Group: P4/NMM->P 4/n m m. File: AWW-PPT1.cif. 
;
_cell_length_a                      13.634
_cell_length_b                      13.634
_cell_length_c                      7.627
_cell_angle_alpha                   90
_cell_angle_beta                    90
_cell_angle_gamma                   90
_cell_volume                        1417.752
_cell_formula_units_Z               4
_symmetry_space_group_name_H-M      'P 4/n m m'
_symmetry_Int_Tables_number         129
_refine_ls_R_factor_all             0
loop_
_symmetry_equiv_pos_site_id
_symmetry_equiv_pos_as_xyz
1 x,y,z
2 -x,-y,z
3 1/2+x,1/2-y,-z
4 1/2-x,1/2+y,-z
5 -y,-x,-z
6 y,x,-z
7 1/2+y,1/2-x,z
8 1/2-y,1/2+x,z
9 1/2-x,1/2-y,-z
10 1/2+x,1/2+y,-z
11 -x,y,z
12 x,-y,z
13 1/2+y,1/2+x,z
14 1/2-y,1/2-x,z
15 -y,x,-z
16 y,-x,-z
loop_
_atom_site_label
_atom_site_type_symbol
_atom_site_symmetry_multiplicity
_atom_site_fract_x
_atom_site_fract_y
_atom_site_fract_z
_atom_site_occupancy
O1 O 16 0.68300 0.63890 0.66300 1.0000
O2 O 8 0.75040 0.50000 0.86990 1.0000
O3 O 8 0.37100 0.50000 0.44420 1.0000
O4 O 8 0.64220 0.64220 0.00000 1.0000
O5 O 8 0.82160 0.67840 0.89210 1.0000
Si1 Si 16 0.72420 0.61480 0.85600 1.0000
Si2 Si 8 0.38730 0.61270 0.50000 1.0000
Lr1 Lr 2 0.00000 0.50000 0.33900 1.0000
Lr2 Lr 2 0.50000 0.50000 0.00000 1.0000
loop_
_topos_bond_atom_site_label_1
_topos_bond_atom_site_label_2
_topos_bond_site_symmetry_1
_topos_bond_site_symmetry_2
_topos_bond_distance
_topos_bond_type
_topos_bond_multiplicity
O1 Si1 1_0_0_0 1_0_0_0 1.6090 V 16
O1 Si2 1_0_0_0 11_1_0_0 1.6100 V 16
O2 Si1 1_0_0_0 1_0_0_0 1.6090 V 16
O3 Si2 1_0_0_0 12_0_1_0 1.6100 V 16
O4 Si1 1_0_0_0 1_0_0_-1 1.6110 V 16
O5 Si1 1_0_0_0 1_0_0_0 1.6100 V 16
Lr1 Lr1 1_0_0_0 1_0_0_-1 7.6270 V 2
#End of data_32-TOPOS_AWW-PPT1

data_33-TOPOS_BCT-PPT1
_audit_creation_date                2025-02-23
_audit_creation_method              ToposPro
_chemical_formula_structural        BCT-PPT1
_chemical_formula_sum               'Lr3 O8 Si4'
_citation_special_details
;
Space Group: I4/MMM->I 4/m m m. File: BCT-PPT1.cif. 
;
_cell_length_a                      8.952
_cell_length_b                      8.952
_cell_length_c                      5.255
_cell_angle_alpha                   90
_cell_angle_beta                    90
_cell_angle_gamma                   90
_cell_volume                        421.1268
_cell_formula_units_Z               2
_symmetry_space_group_name_H-M      'I 4/m m m'
_symmetry_Int_Tables_number         139
_refine_ls_R_factor_all             0
loop_
_symmetry_equiv_pos_site_id
_symmetry_equiv_pos_as_xyz
1 x,y,z
2 -x,-y,z
3 x,-y,-z
4 -x,y,-z
5 -y,-x,-z
6 y,x,-z
7 y,-x,z
8 -y,x,z
9 -x,-y,-z
10 x,y,-z
11 -x,y,z
12 x,-y,z
13 y,x,z
14 -y,-x,z
15 -y,x,-z
16 y,-x,-z
17 1/2+x,1/2+y,1/2+z
18 1/2-x,1/2-y,1/2+z
19 1/2+x,1/2-y,1/2-z
20 1/2-x,1/2+y,1/2-z
21 1/2-y,1/2-x,1/2-z
22 1/2+y,1/2+x,1/2-z
23 1/2+y,1/2-x,1/2+z
24 1/2-y,1/2+x,1/2+z
25 1/2-x,1/2-y,1/2-z
26 1/2+x,1/2+y,1/2-z
27 1/2-x,1/2+y,1/2+z
28 1/2+x,1/2-y,1/2+z
29 1/2+y,1/2+x,1/2+z
30 1/2-y,1/2-x,1/2+z
31 1/2-y,1/2+x,1/2-z
32 1/2+y,1/2-x,1/2-z
loop_
_atom_site_label
_atom_site_type_symbol
_atom_site_symmetry_multiplicity
_atom_site_fract_x
_atom_site_fract_y
_atom_site_fract_z
_atom_site_occupancy
O1 O 8 0.25000 0.25000 0.25000 1.0000
O2 O 8 0.00000 0.20790 0.00000 1.0000
Si1 Si 8 0.17690 0.17690 0.00000 1.0000
Lr1 Lr 2 0.00000 0.00000 0.50000 1.0000
Lr2 Lr 4 0.50000 0.00000 0.50000 1.0000
loop_
_topos_bond_atom_site_label_1
_topos_bond_atom_site_label_2
_topos_bond_site_symmetry_1
_topos_bond_site_symmetry_2
_topos_bond_distance
_topos_bond_type
_topos_bond_multiplicity
O1 Si1 1_0_0_0 1_0_0_0 1.6070 V 16
O2 Si1 1_0_0_0 4_0_0_0 1.6080 V 16
Lr2 Lr2 1_0_0_0 21_0_0_0 2.6270 V 4
#End of data_33-TOPOS_BCT-PPT1

data_34-TOPOS_BEC-PPT1
_audit_creation_date                2025-02-23
_audit_creation_method              ToposPro
_chemical_formula_structural        BEC-PPT1
_chemical_formula_sum               'Lr1 O4 Si2'
_citation_special_details
;
Space Group: P42/MMC->P 42/m m c. File: BEC-PPT1.cif. 
;
_cell_length_a                      12.77
_cell_length_b                      12.77
_cell_length_c                      12.977
_cell_angle_alpha                   90
_cell_angle_beta                    90
_cell_angle_gamma                   90
_cell_volume                        2116.197
_cell_formula_units_Z               16
_symmetry_space_group_name_H-M      'P 42/m m c'
_symmetry_Int_Tables_number         131
_refine_ls_R_factor_all             0
loop_
_symmetry_equiv_pos_site_id
_symmetry_equiv_pos_as_xyz
1 x,y,z
2 -x,-y,z
3 x,-y,-z
4 -x,y,-z
5 -y,-x,1/2-z
6 y,x,1/2-z
7 y,-x,1/2+z
8 -y,x,1/2+z
9 -x,-y,-z
10 x,y,-z
11 -x,y,z
12 x,-y,z
13 y,x,1/2+z
14 -y,-x,1/2+z
15 -y,x,1/2-z
16 y,-x,1/2-z
loop_
_atom_site_label
_atom_site_type_symbol
_atom_site_symmetry_multiplicity
_atom_site_fract_x
_atom_site_fract_y
_atom_site_fract_z
_atom_site_occupancy
O1 O 16 0.81630 0.69420 0.69540 1.0000
O2 O 16 0.89730 0.17970 0.16440 1.0000
O3 O 8 0.00000 0.61990 0.35640 1.0000
O4 O 8 0.85930 0.65670 0.50000 1.0000
O5 O 8 0.83390 0.50000 0.37100 1.0000
O6 O 4 0.00000 0.88040 0.00000 1.0000
O7 O 4 0.00000 0.00000 0.16450 1.0000
Si1 Si 16 0.87700 0.61800 0.61680 1.0000
Si2 Si 8 0.00000 0.11920 0.12380 1.0000
Si3 Si 8 0.80700 0.80700 0.25000 1.0000
Lr1 Lr 2 0.00000 0.50000 0.50000 1.0000
Lr2 Lr 2 0.50000 0.50000 0.50000 1.0000
Lr3 Lr 2 0.00000 0.50000 0.00000 1.0000
Lr4 Lr 4 0.00000 0.81869 0.50000 1.0000
Lr5 Lr 2 0.00000 0.00000 0.25000 1.0000
Lr6 Lr 4 0.50000 0.82550 0.50000 1.0000
loop_
_topos_bond_atom_site_label_1
_topos_bond_atom_site_label_2
_topos_bond_site_symmetry_1
_topos_bond_site_symmetry_2
_topos_bond_distance
_topos_bond_type
_topos_bond_multiplicity
O1 Si1 1_0_0_0 1_0_0_0 1.6090 V 16
O1 Si3 1_0_0_0 10_0_0_1 1.6100 V 16
O2 Si3 1_0_0_0 12_0_1_0 1.6100 V 16
O2 Si2 1_0_0_0 1_1_0_0 1.6110 V 16
O3 Si1 1_0_0_0 4_1_0_1 1.6090 V 16
O4 Si1 1_0_0_0 1_0_0_0 1.6100 V 16
O5 Si1 1_0_0_0 3_0_1_1 1.6120 V 16
O6 Si2 1_0_0_0 2_0_1_0 1.6070 V 8
O7 Si2 1_0_0_0 1_0_0_0 1.6110 V 8
Lr2 Lr6 1_0_0_0 1_0_0_0 4.1570 V 4
Lr2 Lr2 1_0_0_0 5_1_1_0 6.4890 V 2
Lr3 Lr6 1_0_0_0 6_-1_0_0 2.2280 V 4
#End of data_34-TOPOS_BEC-PPT1

data_35-TOPOS_BIK-PPT1
_audit_creation_date                2025-02-23
_audit_creation_method              ToposPro
_chemical_formula_structural        BIK-PPT1
_chemical_formula_sum               'Lr2 O6 Si3'
_citation_special_details
;
Space Group: CMCM->C m c m. File: BIK-PPT1.cif. 
;
_cell_length_a                      7.54
_cell_length_b                      16.222
_cell_length_c                      5.256
_cell_angle_alpha                   90
_cell_angle_beta                    90
_cell_angle_gamma                   90
_cell_volume                        642.8818
_cell_formula_units_Z               4
_symmetry_space_group_name_H-M      'C m c m'
_symmetry_Int_Tables_number         63
_refine_ls_R_factor_all             0
loop_
_symmetry_equiv_pos_site_id
_symmetry_equiv_pos_as_xyz
1 x,y,z
2 -x,-y,1/2+z
3 x,-y,-z
4 -x,y,1/2-z
5 -x,-y,-z
6 x,y,1/2-z
7 -x,y,z
8 x,-y,1/2+z
9 1/2+x,1/2+y,z
10 1/2-x,1/2-y,1/2+z
11 1/2+x,1/2-y,-z
12 1/2-x,1/2+y,1/2-z
13 1/2-x,1/2-y,-z
14 1/2+x,1/2+y,1/2-z
15 1/2-x,1/2+y,z
16 1/2+x,1/2-y,1/2+z
loop_
_atom_site_label
_atom_site_type_symbol
_atom_site_symmetry_multiplicity
_atom_site_fract_x
_atom_site_fract_y
_atom_site_fract_z
_atom_site_occupancy
O1 O 8 0.25000 0.25000 0.50000 1.0000
O2 O 8 0.32560 0.11430 0.25000 1.0000
O3 O 4 0.00000 0.17140 0.25000 1.0000
O4 O 4 0.50000 0.00000 0.00000 1.0000
Si1 Si 8 0.20650 0.19660 0.25000 1.0000
Si2 Si 4 0.50000 0.05710 0.25000 1.0000
Lr1 Lr 4 0.00000 0.33886 0.25000 1.0000
Lr2 Lr 4 0.00000 0.10381 0.75000 1.0000
loop_
_topos_bond_atom_site_label_1
_topos_bond_atom_site_label_2
_topos_bond_site_symmetry_1
_topos_bond_site_symmetry_2
_topos_bond_distance
_topos_bond_type
_topos_bond_multiplicity
O1 Si1 1_0_0_0 1_0_0_0 1.6080 V 16
O2 Si1 1_0_0_0 1_0_0_0 1.6090 V 8
O2 Si2 1_0_0_0 1_0_0_0 1.6090 V 8
O3 Si1 1_0_0_0 1_0_0_0 1.6100 V 8
O4 Si2 1_0_0_0 1_0_0_0 1.6080 V 8
Lr2 Lr2 1_0_0_0 2_0_0_0 4.2720 V 4
#End of data_35-TOPOS_BIK-PPT1

data_36-TOPOS_BOF-PPT1
_audit_creation_date                2025-02-23
_audit_creation_method              ToposPro
_chemical_formula_structural        BOF-PPT1
_chemical_formula_sum               'Lr1 O4 Si2'
_citation_special_details
;
Space Group: PNMA->P n m a. File: BOF-PPT1.cif. 
;
_cell_length_a                      7.503
_cell_length_b                      12.773
_cell_length_c                      13.706
_cell_angle_alpha                   90
_cell_angle_beta                    90
_cell_angle_gamma                   90
_cell_volume                        1313.526
_cell_formula_units_Z               12
_symmetry_space_group_name_H-M      'P n m a'
_symmetry_Int_Tables_number         62
_refine_ls_R_factor_all             0
loop_
_symmetry_equiv_pos_site_id
_symmetry_equiv_pos_as_xyz
1 x,y,z
2 1/2-x,-y,1/2+z
3 1/2+x,1/2-y,1/2-z
4 -x,1/2+y,-z
5 -x,-y,-z
6 1/2+x,y,1/2-z
7 1/2-x,1/2+y,1/2+z
8 x,1/2-y,z
loop_
_atom_site_label
_atom_site_type_symbol
_atom_site_symmetry_multiplicity
_atom_site_fract_x
_atom_site_fract_y
_atom_site_fract_z
_atom_site_occupancy
O1 O 8 0.52470 0.62180 0.55360 1.0000
O2 O 8 0.07100 0.55870 0.76560 1.0000
O3 O 8 0.84570 0.61970 0.62960 1.0000
O4 O 8 0.18360 0.59100 0.58640 1.0000
O5 O 8 0.31600 0.55760 0.41160 1.0000
O6 O 4 0.08800 0.75000 0.69620 1.0000
O7 O 4 0.28750 0.75000 0.47860 1.0000
Si1 Si 8 0.04680 0.62960 0.66940 1.0000
Si2 Si 8 0.65640 0.56050 0.62660 1.0000
Si3 Si 8 0.32790 0.63010 0.50750 1.0000
Lr1 Lr 4 0.34686 0.75000 0.70150 1.0000
Lr2 Lr 4 0.79965 0.75000 0.37904 1.0000
Lr3 Lr 4 0.64447 0.75000 0.65852 1.0000
loop_
_topos_bond_atom_site_label_1
_topos_bond_atom_site_label_2
_topos_bond_site_symmetry_1
_topos_bond_site_symmetry_2
_topos_bond_distance
_topos_bond_type
_topos_bond_multiplicity
O1 Si2 1_0_0_0 1_0_0_0 1.6100 V 8
O1 Si3 1_0_0_0 1_0_0_0 1.6100 V 8
O2 Si1 1_0_0_0 1_0_0_0 1.6100 V 8
O2 Si2 1_0_0_0 6_-1_0_1 1.6110 V 8
O3 Si2 1_0_0_0 1_0_0_0 1.6100 V 8
O3 Si1 1_0_0_0 1_1_0_0 1.6090 V 8
O4 Si1 1_0_0_0 1_0_0_0 1.6100 V 8
O4 Si3 1_0_0_0 1_0_0_0 1.6100 V 8
O5 Si3 1_0_0_0 1_0_0_0 1.6100 V 8
O5 Si2 1_0_0_0 5_1_1_1 1.6100 V 8
O6 Si1 1_0_0_0 1_0_0_0 1.6110 V 8
O7 Si3 1_0_0_0 1_0_0_0 1.6110 V 8
Lr1 Lr3 1_0_0_0 1_0_0_0 2.3090 V 4
Lr1 Lr3 1_0_0_0 3_-1_1_1 2.4470 V 4
Lr2 Lr2 1_0_0_0 3_-1_1_0 5.1560 V 4
#End of data_36-TOPOS_BOF-PPT1

data_37-TOPOS_BOG-PPT1
_audit_creation_date                2025-02-23
_audit_creation_method              ToposPro
_chemical_formula_structural        BOG-PPT1
_chemical_formula_sum               'Lr5 O16 Si8'
_citation_special_details
;
Space Group: IMMA->I m m a. File: BOG-PPT1.cif. 
;
_cell_length_a                      20.014
_cell_length_b                      23.58
_cell_length_c                      12.669
_cell_angle_alpha                   90
_cell_angle_beta                    90
_cell_angle_gamma                   90
_cell_volume                        5978.882
_cell_formula_units_Z               12
_symmetry_space_group_name_H-M      'I m m a'
_symmetry_Int_Tables_number         74
_refine_ls_R_factor_all             0
loop_
_symmetry_equiv_pos_site_id
_symmetry_equiv_pos_as_xyz
1 x,y,z
2 -x,1/2-y,z
3 x,-y,-z
4 -x,1/2+y,-z
5 -x,-y,-z
6 x,1/2+y,-z
7 -x,y,z
8 x,1/2-y,z
9 1/2+x,1/2+y,1/2+z
10 1/2-x,-y,1/2+z
11 1/2+x,1/2-y,1/2-z
12 1/2-x,y,1/2-z
13 1/2-x,1/2-y,1/2-z
14 1/2+x,y,1/2-z
15 1/2-x,1/2+y,1/2+z
16 1/2+x,-y,1/2+z
loop_
_atom_site_label
_atom_site_type_symbol
_atom_site_symmetry_multiplicity
_atom_site_fract_x
_atom_site_fract_y
_atom_site_fract_z
_atom_site_occupancy
O1 O 16 0.70020 0.14490 0.06300 1.0000
O2 O 16 0.62090 0.17620 0.21790 1.0000
O3 O 16 0.60380 0.14410 0.41520 1.0000
O4 O 16 0.70900 0.07050 0.90880 1.0000
O5 O 16 0.67620 0.96290 0.90000 1.0000
O6 O 16 0.62290 0.03540 0.76650 1.0000
O7 O 16 0.60110 0.07200 0.57370 1.0000
O8 O 16 0.58250 0.96430 0.62010 1.0000
O9 O 16 0.79860 0.07080 0.06050 1.0000
O10 O 8 0.70330 0.25000 0.13220 1.0000
O11 O 8 0.58170 0.25000 0.36070 1.0000
O12 O 8 0.75000 0.16710 0.25000 1.0000
O13 O 8 0.50000 0.16960 0.29750 1.0000
O14 O 8 0.50000 0.04150 0.69350 1.0000
O15 O 8 0.75000 0.00760 0.75000 1.0000
Si1 Si 16 0.69350 0.18470 0.16570 1.0000
Si2 Si 16 0.57670 0.18490 0.32290 1.0000
Si3 Si 16 0.68960 0.01920 0.83080 1.0000
Si4 Si 16 0.57660 0.02830 0.66340 1.0000
Si5 Si 16 0.72100 0.08090 0.03300 1.0000
Si6 Si 16 0.62220 0.08060 0.45210 1.0000
Lr1 Lr 16 0.69728 0.08111 0.29018 1.0000
Lr2 Lr 8 0.69690 0.25000 0.61041 1.0000
Lr3 Lr 8 0.50000 0.06639 0.12171 1.0000
Lr4 Lr 8 0.50000 0.06638 0.44375 1.0000
Lr5 Lr 4 0.50000 0.25000 0.82726 1.0000
Lr6 Lr 4 0.50000 0.00000 0.00000 1.0000
Lr7 Lr 8 0.80444 0.00000 0.00000 1.0000
Lr8 Lr 4 0.50000 0.00000 0.50000 1.0000
loop_
_topos_bond_atom_site_label_1
_topos_bond_atom_site_label_2
_topos_bond_site_symmetry_1
_topos_bond_site_symmetry_2
_topos_bond_distance
_topos_bond_type
_topos_bond_multiplicity
O1 Si1 1_0_0_0 1_0_0_0 1.6100 V 16
O1 Si5 1_0_0_0 1_0_0_0 1.6110 V 16
O2 Si1 1_0_0_0 1_0_0_0 1.6090 V 16
O2 Si2 1_0_0_0 1_0_0_0 1.6110 V 16
O3 Si2 1_0_0_0 1_0_0_0 1.6080 V 16
O3 Si6 1_0_0_0 1_0_0_0 1.6110 V 16
O4 Si3 1_0_0_0 1_0_0_0 1.6100 V 16
O4 Si5 1_0_0_0 1_0_0_1 1.6100 V 16
O5 Si5 1_0_0_0 3_0_1_1 1.6100 V 16
O5 Si3 1_0_0_0 1_0_1_0 1.6130 V 16
O6 Si3 1_0_0_0 1_0_0_0 1.6100 V 16
O6 Si4 1_0_0_0 1_0_0_0 1.6100 V 16
O7 Si6 1_0_0_0 1_0_0_0 1.6100 V 16
O7 Si4 1_0_0_0 1_0_0_0 1.6100 V 16
O8 Si6 1_0_0_0 3_0_1_1 1.6090 V 16
O8 Si4 1_0_0_0 1_0_1_0 1.6100 V 16
O9 Si5 1_0_0_0 1_0_0_0 1.6090 V 16
O9 Si6 1_0_0_0 12_1_0_0 1.6100 V 16
O10 Si1 1_0_0_0 1_0_0_0 1.6090 V 16
O11 Si2 1_0_0_0 1_0_0_0 1.6110 V 16
O12 Si1 1_0_0_0 1_0_0_0 1.6100 V 16
O13 Si2 1_0_0_0 1_0_0_0 1.6090 V 16
O14 Si4 1_0_0_0 1_0_0_0 1.6100 V 16
O15 Si3 1_0_0_0 1_0_0_0 1.6070 V 16
Lr1 Lr1 1_0_0_0 12_1_0_0 2.3430 V 8
Lr2 Lr5 1_0_0_0 1_0_0_0 4.8040 V 8
Lr2 Lr2 1_0_0_0 12_1_0_1 4.1260 V 4
Lr3 Lr5 1_0_0_0 1_0_0_-1 5.7150 V 8
Lr3 Lr6 1_0_0_0 1_0_0_0 2.1970 V 8
Lr4 Lr8 1_0_0_0 1_0_0_0 1.7200 V 8
#End of data_37-TOPOS_BOG-PPT1

data_38-TOPOS_BOZ-PPT1
_audit_creation_date                2025-02-23
_audit_creation_method              ToposPro
_chemical_formula_structural        BOZ-PPT1
_chemical_formula_sum               'Lr3 O46 Si23'
_citation_special_details
;
Space Group: CMCM->C m c m. File: BOZ-PPT1.cif. 
;
_cell_length_a                      14.1488
_cell_length_b                      35.7082
_cell_length_c                      14.077
_cell_angle_alpha                   90
_cell_angle_beta                    90
_cell_angle_gamma                   90
_cell_volume                        7112.097
_cell_formula_units_Z               4
_symmetry_space_group_name_H-M      'C m c m'
_symmetry_Int_Tables_number         63
_refine_ls_R_factor_all             0
loop_
_symmetry_equiv_pos_site_id
_symmetry_equiv_pos_as_xyz
1 x,y,z
2 -x,-y,1/2+z
3 x,-y,-z
4 -x,y,1/2-z
5 -x,-y,-z
6 x,y,1/2-z
7 -x,y,z
8 x,-y,1/2+z
9 1/2+x,1/2+y,z
10 1/2-x,1/2-y,1/2+z
11 1/2+x,1/2-y,-z
12 1/2-x,1/2+y,1/2-z
13 1/2-x,1/2-y,-z
14 1/2+x,1/2+y,1/2-z
15 1/2-x,1/2+y,z
16 1/2+x,1/2-y,1/2+z
loop_
_atom_site_label
_atom_site_type_symbol
_atom_site_symmetry_multiplicity
_atom_site_fract_x
_atom_site_fract_y
_atom_site_fract_z
_atom_site_occupancy
O1 O 16 0.16880 0.34520 0.58400 1.0000
O2 O 16 0.29640 0.39790 0.59110 1.0000
O3 O 16 0.33830 0.33060 0.65680 1.0000
O4 O 16 0.17330 0.08250 0.58690 1.0000
O5 O 16 0.12290 0.01220 0.58820 1.0000
O6 O 16 0.59270 0.16160 0.58740 1.0000
O7 O 16 0.25390 0.03510 0.47080 1.0000
O8 O 16 0.34600 0.09610 0.52590 1.0000
O9 O 8 0.00000 0.71980 0.65690 1.0000
O10 O 8 0.00000 0.06440 0.63650 1.0000
O11 O 8 0.00000 0.37320 0.54530 1.0000
O12 O 8 0.40740 0.27230 0.75000 1.0000
O13 O 8 0.22090 0.37280 0.75000 1.0000
O14 O 8 0.14250 0.04840 0.75000 1.0000
O15 O 4 0.00000 0.65710 0.75000 1.0000
O16 O 4 0.00000 0.83500 0.75000 1.0000
Si1 Si 16 0.25600 0.36150 0.64490 1.0000
Si2 Si 16 0.10910 0.05190 0.64110 1.0000
Si3 Si 16 0.24450 0.07880 0.49800 1.0000
Si4 Si 16 0.10440 0.36500 0.50430 1.0000
Si5 Si 8 0.00000 0.67490 0.64470 1.0000
Si6 Si 8 0.39520 0.31720 0.75000 1.0000
Si7 Si 4 0.00000 0.74610 0.75000 1.0000
Si8 Si 8 0.18860 0.00000 0.50000 1.0000
Lr1 Lr 4 0.00000 0.20595 0.75000 1.0000
Lr2 Lr 4 0.00000 0.50011 0.75000 1.0000
Lr3 Lr 4 0.50000 0.44387 0.75000 1.0000
loop_
_topos_bond_atom_site_label_1
_topos_bond_atom_site_label_2
_topos_bond_site_symmetry_1
_topos_bond_site_symmetry_2
_topos_bond_distance
_topos_bond_type
_topos_bond_multiplicity
O1 Si4 1_0_0_0 1_0_0_0 1.6090 V 16
O1 Si1 1_0_0_0 1_0_0_0 1.6110 V 16
O2 Si1 1_0_0_0 1_0_0_0 1.6090 V 16
O2 Si3 1_0_0_0 13_0_0_1 1.6130 V 16
O3 Si6 1_0_0_0 1_0_0_0 1.6120 V 16
O3 Si1 1_0_0_0 1_0_0_0 1.6130 V 16
O4 Si3 1_0_0_0 1_0_0_0 1.6120 V 16
O4 Si2 1_0_0_0 1_0_0_0 1.6130 V 16
O5 Si8 1_0_0_0 1_0_0_0 1.6110 V 16
O5 Si2 1_0_0_0 1_0_0_0 1.6130 V 16
O6 Si4 1_0_0_0 11_0_0_1 1.6110 V 16
O6 Si5 1_0_0_0 9_0_-1_0 1.6110 V 16
O7 Si8 1_0_0_0 1_0_0_0 1.6100 V 16
O7 Si3 1_0_0_0 1_0_0_0 1.6120 V 16
O8 Si3 1_0_0_0 1_0_0_0 1.6120 V 16
O8 Si4 1_0_0_0 13_0_0_1 1.6130 V 16
O9 Si7 1_0_0_0 1_0_0_0 1.6120 V 8
O9 Si5 1_0_0_0 1_0_0_0 1.6120 V 8
O10 Si2 1_0_0_0 1_0_0_0 1.6080 V 16
O11 Si4 1_0_0_0 1_0_0_0 1.6130 V 16
O12 Si6 1_0_0_0 1_0_0_0 1.6130 V 8
O12 Si7 1_0_0_0 9_0_-1_0 1.6100 V 8
O13 Si1 1_0_0_0 1_0_0_0 1.6120 V 16
O14 Si2 1_0_0_0 1_0_0_0 1.6090 V 16
O15 Si5 1_0_0_0 1_0_0_0 1.6130 V 8
O16 Si6 1_0_0_0 9_-1_0_0 1.6130 V 8
Lr1 Lr2 1_0_0_0 1_0_0_0 10.5040 V 4
Lr1 Lr3 1_0_0_0 10_0_0_-1 8.8410 V 8
Lr1 Lr2 1_0_0_0 9_-1_-1_0 10.2020 V 8
Lr1 Lr1 1_0_0_0 10_-1_0_0 10.4630 V 8
Lr2 Lr3 1_0_0_0 1_0_0_0 7.3540 V 8
Lr2 Lr2 1_0_0_0 2_0_1_0 7.0390 V 4
#End of data_38-TOPOS_BOZ-PPT1

data_39-TOPOS_BPH-PPT1
_audit_creation_date                2025-02-23
_audit_creation_method              ToposPro
_chemical_formula_structural        BPH-PPT1
_chemical_formula_sum               'Lr1 O14 Si7'
_citation_special_details
;
Space Group: P-62M->P -6 2 m. File: BPH-PPT1.cif. 
;
_cell_length_a                      13.057
_cell_length_b                      13.057
_cell_length_c                      12.969
_cell_angle_alpha                   90
_cell_angle_beta                    90
_cell_angle_gamma                   120
_cell_volume                        1914.802
_cell_formula_units_Z               4
_symmetry_space_group_name_H-M      'P -6 2 m'
_symmetry_Int_Tables_number         189
_refine_ls_R_factor_all             0
loop_
_symmetry_equiv_pos_site_id
_symmetry_equiv_pos_as_xyz
1 x,y,z
2 -y,x-y,z
3 -x+y,-x,z
4 x-y,-y,-z
5 -x,-x+y,-z
6 y,x,-z
7 y,x,z
8 -x,-x+y,z
9 x-y,-y,z
10 x,y,-z
11 -x+y,-x,-z
12 -y,x-y,-z
loop_
_atom_site_label
_atom_site_type_symbol
_atom_site_symmetry_multiplicity
_atom_site_fract_x
_atom_site_fract_y
_atom_site_fract_z
_atom_site_occupancy
O1 O 12 0.41800 0.22160 0.30730 1.0000
O2 O 12 0.56640 0.36050 0.16550 1.0000
O3 O 12 0.58050 0.43870 0.35480 1.0000
O4 O 6 0.40160 0.40160 0.23640 1.0000
O5 O 6 0.66860 0.66860 0.36470 1.0000
O6 O 6 0.56200 0.73350 0.50000 1.0000
O7 O 2 0.33333 0.66667 0.00000 1.0000
Si1 Si 12 0.49160 0.35570 0.26590 1.0000
Si2 Si 12 0.56290 0.69670 0.38170 1.0000
Si3 Si 4 0.33333 0.66667 0.12390 1.0000
Lr1 Lr 1 0.00000 0.00000 0.50000 1.0000
Lr2 Lr 1 0.00000 0.00000 0.00000 1.0000
Lr3 Lr 2 0.66667 0.33333 0.50000 1.0000
loop_
_topos_bond_atom_site_label_1
_topos_bond_atom_site_label_2
_topos_bond_site_symmetry_1
_topos_bond_site_symmetry_2
_topos_bond_distance
_topos_bond_type
_topos_bond_multiplicity
O1 Si1 1_0_0_0 1_0_0_0 1.6110 V 12
O1 Si2 1_0_0_0 8_1_0_0 1.6100 V 12
O2 Si1 1_0_0_0 1_0_0_0 1.6100 V 12
O2 Si3 1_0_0_0 7_0_0_0 1.6110 V 12
O3 Si1 1_0_0_0 1_0_0_0 1.6100 V 12
O3 Si2 1_0_0_0 7_0_0_0 1.6100 V 12
O4 Si1 1_0_0_0 1_0_0_0 1.6100 V 12
O5 Si2 1_0_0_0 1_0_0_0 1.6110 V 12
O6 Si2 1_0_0_0 1_0_0_0 1.6100 V 12
O7 Si3 1_0_0_0 1_0_0_0 1.6070 V 4
Lr1 Lr2 1_0_0_0 1_0_0_0 6.4850 V 2
Lr2 Lr2 1_0_0_0 1_-1_0_0 13.0570 V 3
#End of data_39-TOPOS_BPH-PPT1

data_40-TOPOS_BRE-PPT1
_audit_creation_date                2025-02-23
_audit_creation_method              ToposPro
_chemical_formula_structural        BRE-PPT1
_chemical_formula_sum               'Lr1 O8 Si4'
_citation_special_details
;
Space Group: P21/M->P 21/m. File: BRE-PPT1.cif. 
;
_cell_length_a                      6.76
_cell_length_b                      17.093
_cell_length_c                      7.603
_cell_angle_alpha                   90
_cell_angle_beta                    95.827
_cell_angle_gamma                   90
_cell_volume                        873.9774
_cell_formula_units_Z               4
_symmetry_space_group_name_H-M      'P 21/m'
_symmetry_Int_Tables_number         11
_refine_ls_R_factor_all             0
loop_
_symmetry_equiv_pos_site_id
_symmetry_equiv_pos_as_xyz
1 x,y,z
2 -x,1/2+y,-z
3 -x,-y,-z
4 x,1/2-y,z
loop_
_atom_site_label
_atom_site_type_symbol
_atom_site_symmetry_multiplicity
_atom_site_fract_x
_atom_site_fract_y
_atom_site_fract_z
_atom_site_occupancy
O1 O 4 0.38070 0.10110 0.03030 1.0000
O2 O 4 0.09810 0.09510 0.76600 1.0000
O3 O 4 0.40510 0.00030 0.77230 1.0000
O4 O 4 0.45060 0.15050 0.71480 1.0000
O5 O 4 0.20590 0.00020 0.22480 1.0000
O6 O 4 0.41690 0.11550 0.37650 1.0000
O7 O 4 0.77000 0.11940 0.55670 1.0000
O8 O 2 0.57300 0.25000 0.48480 1.0000
O9 O 2 0.00000 0.00000 0.50000 1.0000
Si1 Si 4 0.33360 0.08680 0.82090 1.0000
Si2 Si 4 0.39970 0.05420 0.21500 1.0000
Si3 Si 4 0.55270 0.15890 0.53330 1.0000
Si4 Si 4 0.91550 0.05350 0.64930 1.0000
Lr1 Lr 2 0.94237 0.25000 0.11709 1.0000
Lr2 Lr 2 0.50000 0.00000 0.50000 1.0000
loop_
_topos_bond_atom_site_label_1
_topos_bond_atom_site_label_2
_topos_bond_site_symmetry_1
_topos_bond_site_symmetry_2
_topos_bond_distance
_topos_bond_type
_topos_bond_multiplicity
O1 Si2 1_0_0_0 1_0_0_0 1.6110 V 4
O1 Si1 1_0_0_0 1_0_0_-1 1.6100 V 4
O2 Si1 1_0_0_0 1_0_0_0 1.6110 V 4
O2 Si4 1_0_0_0 1_-1_0_0 1.6110 V 4
O3 Si1 1_0_0_0 1_0_0_0 1.6100 V 4
O3 Si2 1_0_0_0 3_1_0_1 1.6100 V 4
O4 Si1 1_0_0_0 1_0_0_0 1.6100 V 4
O4 Si3 1_0_0_0 1_0_0_0 1.6110 V 4
O5 Si2 1_0_0_0 1_0_0_0 1.6100 V 4
O5 Si4 1_0_0_0 3_1_0_1 1.6100 V 4
O6 Si2 1_0_0_0 1_0_0_0 1.6090 V 4
O6 Si3 1_0_0_0 1_0_0_0 1.6100 V 4
O7 Si4 1_0_0_0 1_0_0_0 1.6100 V 4
O7 Si3 1_0_0_0 1_0_0_0 1.6100 V 4
O8 Si3 1_0_0_0 1_0_0_0 1.6090 V 4
O9 Si4 1_0_0_0 1_-1_0_0 1.6070 V 4
Lr1 Lr1 1_0_0_0 1_0_0_-1 7.6030 V 2
Lr1 Lr1 1_0_0_0 1_1_0_0 6.7600 V 2
#End of data_40-TOPOS_BRE-PPT1

data_41-TOPOS_BSV-PPT1
_audit_creation_date                2025-02-23
_audit_creation_method              ToposPro
_chemical_formula_structural        BSV-PPT1
_chemical_formula_sum               'Lr5 O24 Si12'
_citation_special_details
;
Space Group: IA-3D->I a -3 d. File: BSV-PPT1.cif. 
;
_cell_length_a                      17.252
_cell_length_b                      17.252
_cell_length_c                      17.252
_cell_angle_alpha                   90
_cell_angle_beta                    90
_cell_angle_gamma                   90
_cell_volume                        5134.739
_cell_formula_units_Z               8
_symmetry_space_group_name_H-M      'I a -3 d'
_symmetry_Int_Tables_number         230
_refine_ls_R_factor_all             0
loop_
_symmetry_equiv_pos_site_id
_symmetry_equiv_pos_as_xyz
1 x,y,z
2 -x,1/2-y,z
3 x,-y,1/2-z
4 1/2-x,y,-z
5 z,x,y
6 y,z,x
7 -z,1/2-x,y
8 1/2-y,z,-x
9 z,-x,1/2-y
10 -y,1/2-z,x
11 1/2-z,x,-y
12 y,-z,1/2-x
13 1/4-y,1/4-x,1/4-z
14 3/4+y,1/4+x,1/4-z
15 1/4+y,1/4-x,3/4+z
16 1/4-y,3/4+x,1/4+z
17 1/4-x,1/4-z,1/4-y
18 1/4-z,1/4-y,1/4-x
19 3/4+x,1/4+z,1/4-y
20 1/4-z,3/4+y,1/4+x
21 1/4+x,1/4-z,3/4+y
22 3/4+z,1/4+y,1/4-x
23 1/4-x,3/4+z,1/4+y
24 1/4+z,1/4-y,3/4+x
25 -x,-y,-z
26 x,1/2+y,-z
27 -x,y,1/2+z
28 1/2+x,-y,z
29 -z,-x,-y
30 -y,-z,-x
31 z,1/2+x,-y
32 1/2+y,-z,x
33 -z,x,1/2+y
34 y,1/2+z,-x
35 1/2+z,-x,y
36 -y,z,1/2+x
37 1/4+y,1/4+x,1/4+z
38 3/4-y,1/4-x,1/4+z
39 1/4-y,1/4+x,3/4-z
40 1/4+y,3/4-x,1/4-z
41 1/4+x,1/4+z,1/4+y
42 1/4+z,1/4+y,1/4+x
43 3/4-x,1/4-z,1/4+y
44 1/4+z,3/4-y,1/4-x
45 1/4-x,1/4+z,3/4-y
46 3/4-z,1/4-y,1/4+x
47 1/4+x,3/4-z,1/4-y
48 1/4-z,1/4+y,3/4-x
49 1/2+x,1/2+y,1/2+z
50 1/2-x,-y,1/2+z
51 1/2+x,1/2-y,-z
52 -x,1/2+y,1/2-z
53 1/2+z,1/2+x,1/2+y
54 1/2+y,1/2+z,1/2+x
55 1/2-z,-x,1/2+y
56 -y,1/2+z,1/2-x
57 1/2+z,1/2-x,-y
58 1/2-y,-z,1/2+x
59 -z,1/2+x,1/2-y
60 1/2+y,1/2-z,-x
61 3/4-y,3/4-x,3/4-z
62 1/4+y,3/4+x,3/4-z
63 3/4+y,3/4-x,1/4+z
64 3/4-y,1/4+x,3/4+z
65 3/4-x,3/4-z,3/4-y
66 3/4-z,3/4-y,3/4-x
67 1/4+x,3/4+z,3/4-y
68 3/4-z,1/4+y,3/4+x
69 3/4+x,3/4-z,1/4+y
70 1/4+z,3/4+y,3/4-x
71 3/4-x,1/4+z,3/4+y
72 3/4+z,3/4-y,1/4+x
73 1/2-x,1/2-y,1/2-z
74 1/2+x,y,1/2-z
75 1/2-x,1/2+y,z
76 x,1/2-y,1/2+z
77 1/2-z,1/2-x,1/2-y
78 1/2-y,1/2-z,1/2-x
79 1/2+z,x,1/2-y
80 y,1/2-z,1/2+x
81 1/2-z,1/2+x,y
82 1/2+y,z,1/2-x
83 z,1/2-x,1/2+y
84 1/2-y,1/2+z,x
85 3/4+y,3/4+x,3/4+z
86 1/4-y,3/4-x,3/4+z
87 3/4-y,3/4+x,1/4-z
88 3/4+y,1/4-x,3/4-z
89 3/4+x,3/4+z,3/4+y
90 3/4+z,3/4+y,3/4+x
91 1/4-x,3/4-z,3/4+y
92 3/4+z,1/4-y,3/4-x
93 3/4-x,3/4+z,1/4-y
94 1/4-z,3/4-y,3/4+x
95 3/4+x,1/4-z,3/4-y
96 3/4-z,3/4+y,1/4-x
loop_
_atom_site_label
_atom_site_type_symbol
_atom_site_symmetry_multiplicity
_atom_site_fract_x
_atom_site_fract_y
_atom_site_fract_z
_atom_site_occupancy
O1 O 96 0.17860 0.33980 0.06240 1.0000
O2 O 96 0.30100 0.26740 0.12080 1.0000
Si1 Si 96 0.25600 0.34900 0.11380 1.0000
Lr1 Lr 24 0.00000 0.25000 0.12500 1.0000
Lr2 Lr 16 0.37500 0.62500 0.12500 1.0000
loop_
_topos_bond_atom_site_label_1
_topos_bond_atom_site_label_2
_topos_bond_site_symmetry_1
_topos_bond_site_symmetry_2
_topos_bond_distance
_topos_bond_type
_topos_bond_multiplicity
O1 Si1 1_0_0_0 1_0_0_0 1.6110 V 96
O1 Si1 1_0_0_0 94_0_0_-1 1.6110 V 96
O2 Si1 1_0_0_0 1_0_0_0 1.6120 V 96
O2 Si1 1_0_0_0 77_0_0_0 1.6110 V 96
Lr1 Lr2 1_0_0_0 28_-1_1_0 3.0500 V 48
#End of data_41-TOPOS_BSV-PPT1

data_42-TOPOS_CAN-PPT1
_audit_creation_date                2025-02-23
_audit_creation_method              ToposPro
_chemical_formula_structural        CAN-PPT1
_chemical_formula_sum               'Lr1 O6 Si3'
_citation_special_details
;
Space Group: P63/MMC->P 63/m m c. File: CAN-PPT1.cif. 
;
_cell_length_a                      12.494
_cell_length_b                      12.494
_cell_length_c                      5.254
_cell_angle_alpha                   90
_cell_angle_beta                    90
_cell_angle_gamma                   120
_cell_volume                        710.2705
_cell_formula_units_Z               4
_symmetry_space_group_name_H-M      'P 63/m m c'
_symmetry_Int_Tables_number         194
_refine_ls_R_factor_all             0
loop_
_symmetry_equiv_pos_site_id
_symmetry_equiv_pos_as_xyz
1 x,y,z
2 -x,-y,1/2+z
3 -y,x-y,z
4 -x+y,-x,z
5 x-y,x,1/2+z
6 y,-x+y,1/2+z
7 x-y,-y,-z
8 -x,-x+y,-z
9 y,x,-z
10 -y,-x,1/2-z
11 x,x-y,1/2-z
12 -x+y,y,1/2-z
13 -x,-y,-z
14 x,y,1/2-z
15 y,-x+y,-z
16 x-y,x,-z
17 -x+y,-x,1/2-z
18 -y,x-y,1/2-z
19 -x+y,y,z
20 x,x-y,z
21 -y,-x,z
22 y,x,1/2+z
23 -x,-x+y,1/2+z
24 x-y,-y,1/2+z
loop_
_atom_site_label
_atom_site_type_symbol
_atom_site_symmetry_multiplicity
_atom_site_fract_x
_atom_site_fract_y
_atom_site_fract_z
_atom_site_occupancy
O1 O 12 0.00000 0.35650 0.50000 1.0000
O2 O 6 0.19860 0.39720 0.75000 1.0000
O3 O 6 0.12990 0.56495 0.75000 1.0000
Si1 Si 12 0.08220 0.41900 0.75000 1.0000
Lr1 Lr 2 0.66667 0.33333 0.75000 1.0000
Lr2 Lr 2 0.00000 0.00000 0.25000 1.0000
loop_
_topos_bond_atom_site_label_1
_topos_bond_atom_site_label_2
_topos_bond_site_symmetry_1
_topos_bond_site_symmetry_2
_topos_bond_distance
_topos_bond_type
_topos_bond_multiplicity
O1 Si1 1_0_0_0 8_0_0_1 1.6090 V 24
O2 Si1 1_0_0_0 1_0_0_0 1.6080 V 12
O3 Si1 1_0_0_0 1_0_0_0 1.6100 V 12
Lr2 Lr2 1_0_0_0 2_0_0_0 2.6270 V 2
#End of data_42-TOPOS_CAN-PPT1

data_43-TOPOS_CAS-PPT1
_audit_creation_date                2025-02-23
_audit_creation_method              ToposPro
_chemical_formula_structural        CAS-PPT1
_chemical_formula_sum               'Lr2 O6 Si3'
_citation_special_details
;
Space Group: CMCM->C m c m. File: CAS-PPT1.cif. 
;
_cell_length_a                      5.256
_cell_length_b                      14.132
_cell_length_c                      17.227
_cell_angle_alpha                   90
_cell_angle_beta                    90
_cell_angle_gamma                   90
_cell_volume                        1279.583
_cell_formula_units_Z               8
_symmetry_space_group_name_H-M      'C m c m'
_symmetry_Int_Tables_number         63
_refine_ls_R_factor_all             0
loop_
_symmetry_equiv_pos_site_id
_symmetry_equiv_pos_as_xyz
1 x,y,z
2 -x,-y,1/2+z
3 x,-y,-z
4 -x,y,1/2-z
5 -x,-y,-z
6 x,y,1/2-z
7 -x,y,z
8 x,-y,1/2+z
9 1/2+x,1/2+y,z
10 1/2-x,1/2-y,1/2+z
11 1/2+x,1/2-y,-z
12 1/2-x,1/2+y,1/2-z
13 1/2-x,1/2-y,-z
14 1/2+x,1/2+y,1/2-z
15 1/2-x,1/2+y,z
16 1/2+x,1/2-y,1/2+z
loop_
_atom_site_label
_atom_site_type_symbol
_atom_site_symmetry_multiplicity
_atom_site_fract_x
_atom_site_fract_y
_atom_site_fract_z
_atom_site_occupancy
O1 O 16 0.75000 0.01310 0.63180 1.0000
O2 O 8 0.00000 0.17300 0.61590 1.0000
O3 O 8 0.00000 0.35760 0.59810 1.0000
O4 O 8 0.25000 0.25000 0.50000 1.0000
O5 O 4 0.00000 0.08510 0.75000 1.0000
O6 O 4 0.50000 0.00000 0.50000 1.0000
Si1 Si 8 0.00000 0.25760 0.55340 1.0000
Si2 Si 8 0.00000 0.07090 0.65740 1.0000
Si3 Si 8 0.50000 0.97110 0.59030 1.0000
Lr1 Lr 8 0.50000 0.41751 0.50593 1.0000
Lr2 Lr 4 0.00000 0.25875 0.25000 1.0000
Lr3 Lr 4 0.50000 0.88828 0.75000 1.0000
loop_
_topos_bond_atom_site_label_1
_topos_bond_atom_site_label_2
_topos_bond_site_symmetry_1
_topos_bond_site_symmetry_2
_topos_bond_distance
_topos_bond_type
_topos_bond_multiplicity
O1 Si2 1_0_0_0 1_1_0_0 1.6090 V 16
O1 Si3 1_0_0_0 1_0_-1_0 1.6090 V 16
O2 Si1 1_0_0_0 1_0_0_0 1.6090 V 8
O2 Si2 1_0_0_0 1_0_0_0 1.6100 V 8
O3 Si1 1_0_0_0 1_0_0_0 1.6090 V 8
O3 Si3 1_0_0_0 9_-1_-1_0 1.6100 V 8
O4 Si1 1_0_0_0 1_0_0_0 1.6080 V 16
O5 Si2 1_0_0_0 1_0_0_0 1.6080 V 8
O6 Si3 1_0_0_0 3_0_1_1 1.6080 V 8
Lr1 Lr1 1_0_0_0 3_0_1_1 2.3400 V 4
Lr2 Lr3 1_0_0_0 2_0_1_-1 3.3500 V 8
#End of data_43-TOPOS_CAS-PPT1

data_44-TOPOS_CDO-PPT1
_audit_creation_date                2025-02-23
_audit_creation_method              ToposPro
_chemical_formula_structural        CDO-PPT1
_chemical_formula_sum               'Lr4 O18 Si9'
_citation_special_details
;
Space Group: CMCM->C m c m. File: CDO-PPT1.cif. 
;
_cell_length_a                      7.557
_cell_length_b                      18.715
_cell_length_c                      14.099
_cell_angle_alpha                   90
_cell_angle_beta                    90
_cell_angle_gamma                   90
_cell_volume                        1994.011
_cell_formula_units_Z               4
_symmetry_space_group_name_H-M      'C m c m'
_symmetry_Int_Tables_number         63
_refine_ls_R_factor_all             0
loop_
_symmetry_equiv_pos_site_id
_symmetry_equiv_pos_as_xyz
1 x,y,z
2 -x,-y,1/2+z
3 x,-y,-z
4 -x,y,1/2-z
5 -x,-y,-z
6 x,y,1/2-z
7 -x,y,z
8 x,-y,1/2+z
9 1/2+x,1/2+y,z
10 1/2-x,1/2-y,1/2+z
11 1/2+x,1/2-y,-z
12 1/2-x,1/2+y,1/2-z
13 1/2-x,1/2-y,-z
14 1/2+x,1/2+y,1/2-z
15 1/2-x,1/2+y,z
16 1/2+x,1/2-y,1/2+z
loop_
_atom_site_label
_atom_site_type_symbol
_atom_site_symmetry_multiplicity
_atom_site_fract_x
_atom_site_fract_y
_atom_site_fract_z
_atom_site_occupancy
O1 O 16 0.17440 0.11570 0.00160 1.0000
O2 O 16 0.23900 0.19030 0.16000 1.0000
O3 O 8 0.25000 0.25000 0.00000 1.0000
O4 O 8 0.50000 0.15550 0.04280 1.0000
O5 O 8 0.32770 0.31180 0.25000 1.0000
O6 O 4 0.00000 0.26540 0.25000 1.0000
O7 O 4 0.00000 0.00000 0.50000 1.0000
O8 O 8 0.00000 0.08750 0.65650 1.0000
Si1 Si 16 0.29410 0.17580 0.05160 1.0000
Si2 Si 8 0.20480 0.24150 0.25000 1.0000
Si3 Si 4 0.00000 0.86260 0.25000 1.0000
Si4 Si 8 0.00000 0.07950 0.54290 1.0000
Lr1 Lr 8 0.50000 0.28326 0.09911 1.0000
Lr2 Lr 4 0.00000 0.09535 0.25000 1.0000
Lr3 Lr 4 0.50000 0.07186 0.75000 1.0000
loop_
_topos_bond_atom_site_label_1
_topos_bond_atom_site_label_2
_topos_bond_site_symmetry_1
_topos_bond_site_symmetry_2
_topos_bond_distance
_topos_bond_type
_topos_bond_multiplicity
O1 Si1 1_0_0_0 1_0_0_0 1.6060 V 16
O1 Si4 1_0_0_0 4_0_0_0 1.6090 V 16
O2 Si1 1_0_0_0 1_0_0_0 1.6070 V 16
O2 Si2 1_0_0_0 1_0_0_0 1.6110 V 16
O3 Si1 1_0_0_0 1_0_0_0 1.6030 V 16
O4 Si1 1_0_0_0 1_0_0_0 1.6060 V 16
O5 Si2 1_0_0_0 1_0_0_0 1.6100 V 8
O5 Si3 1_0_0_0 9_0_-1_0 1.6120 V 8
O6 Si2 1_0_0_0 1_0_0_0 1.6110 V 8
O7 Si4 1_0_0_0 1_0_0_0 1.6060 V 8
O8 Si3 1_0_0_0 2_0_1_0 1.6160 V 8
O8 Si4 1_0_0_0 1_0_0_0 1.6090 V 8
Lr2 Lr3 1_0_0_0 2_1_0_-1 4.9060 V 8
Lr3 Lr3 1_0_0_0 2_1_0_-1 7.5450 V 4
#End of data_44-TOPOS_CDO-PPT1

data_45-TOPOS_CFI-PPT1
_audit_creation_date                2025-02-23
_audit_creation_method              ToposPro
_chemical_formula_structural        CFI-PPT1
_chemical_formula_sum               'Lr1 O4 Si2'
_citation_special_details
;
Space Group: IMMA->I m m a. File: CFI-PPT1.cif. 
;
_cell_length_a                      13.961
_cell_length_b                      5.264
_cell_length_c                      25.967
_cell_angle_alpha                   90
_cell_angle_beta                    90
_cell_angle_gamma                   90
_cell_volume                        1908.333
_cell_formula_units_Z               16
_symmetry_space_group_name_H-M      'I m m a'
_symmetry_Int_Tables_number         74
_refine_ls_R_factor_all             0
loop_
_symmetry_equiv_pos_site_id
_symmetry_equiv_pos_as_xyz
1 x,y,z
2 -x,1/2-y,z
3 x,-y,-z
4 -x,1/2+y,-z
5 -x,-y,-z
6 x,1/2+y,-z
7 -x,y,z
8 x,1/2-y,z
9 1/2+x,1/2+y,1/2+z
10 1/2-x,-y,1/2+z
11 1/2+x,1/2-y,1/2-z
12 1/2-x,y,1/2-z
13 1/2-x,1/2-y,1/2-z
14 1/2+x,y,1/2-z
15 1/2-x,1/2+y,1/2+z
16 1/2+x,-y,1/2+z
loop_
_atom_site_label
_atom_site_type_symbol
_atom_site_symmetry_multiplicity
_atom_site_fract_x
_atom_site_fract_y
_atom_site_fract_z
_atom_site_occupancy
O1 O 16 0.75420 0.50060 0.16130 1.0000
O2 O 4 0.50000 0.25000 0.05710 1.0000
O3 O 8 0.59400 0.25000 0.16790 1.0000
O4 O 8 0.68510 0.25000 0.08060 1.0000
O5 O 8 0.50000 0.50010 0.23890 1.0000
O6 O 8 0.62330 0.00000 0.00000 1.0000
O7 O 4 0.75000 0.75000 0.25000 1.0000
O8 O 8 0.59500 0.75000 0.30930 1.0000
Si1 Si 4 0.50000 0.25000 0.20350 1.0000
Si2 Si 8 0.60760 0.25000 0.03460 1.0000
Si3 Si 8 0.69870 0.25000 0.14210 1.0000
Si4 Si 8 0.78960 0.75000 0.19190 1.0000
Si5 Si 4 0.50000 0.75000 0.27430 1.0000
Lr1 Lr 4 0.50000 0.25000 0.86359 1.0000
Lr2 Lr 4 0.50000 0.25000 0.47488 1.0000
Lr3 Lr 8 0.66667 0.25000 0.25023 1.0000
loop_
_topos_bond_atom_site_label_1
_topos_bond_atom_site_label_2
_topos_bond_site_symmetry_1
_topos_bond_site_symmetry_2
_topos_bond_distance
_topos_bond_type
_topos_bond_multiplicity
O1 Si3 1_0_0_0 1_0_0_0 1.6090 V 16
O1 Si4 1_0_0_0 1_0_0_0 1.6120 V 16
O2 Si2 1_0_0_0 1_0_0_0 1.6120 V 8
O3 Si1 1_0_0_0 1_0_0_0 1.6050 V 8
O3 Si3 1_0_0_0 1_0_0_0 1.6080 V 8
O4 Si3 1_0_0_0 1_0_0_0 1.6080 V 8
O4 Si2 1_0_0_0 1_0_0_0 1.6120 V 8
O5 Si1 1_0_0_0 1_0_0_0 1.6060 V 8
O5 Si5 1_0_0_0 1_0_0_0 1.6050 V 8
O6 Si2 1_0_0_0 1_0_0_0 1.6080 V 16
O7 Si4 1_0_0_0 1_0_0_0 1.6070 V 8
O8 Si5 1_0_0_0 1_0_0_0 1.6080 V 8
O8 Si4 1_0_0_0 12_1_0_0 1.6110 V 8
Lr2 Lr2 1_0_0_0 3_0_0_1 2.9380 V 4
Lr3 Lr3 1_0_0_0 12_1_0_0 2.3270 V 4
#End of data_45-TOPOS_CFI-PPT1

data_46-TOPOS_CGF-NT
_audit_creation_date                2025-02-23
_audit_creation_method              ToposPro
_chemical_formula_structural        CGF-NT
_chemical_formula_sum               'Lr4 O18 Si9'
_citation_special_details
;
Space Group: C2/M->C 2/m. File: CGF-NT.cif. 
;
_cell_length_a                      15.501
_cell_length_b                      16.902
_cell_length_c                      7.273
_cell_angle_alpha                   90
_cell_angle_beta                    96.07
_cell_angle_gamma                   90
_cell_volume                        1894.827
_cell_formula_units_Z               4
_symmetry_space_group_name_H-M      'C 2/m'
_symmetry_Int_Tables_number         12
_refine_ls_R_factor_all             0
loop_
_symmetry_equiv_pos_site_id
_symmetry_equiv_pos_as_xyz
1 x,y,z
2 -x,y,-z
3 -x,-y,-z
4 x,-y,z
5 1/2+x,1/2+y,z
6 1/2-x,1/2+y,-z
7 1/2-x,1/2-y,-z
8 1/2+x,1/2-y,z
loop_
_atom_site_label
_atom_site_type_symbol
_atom_site_symmetry_multiplicity
_atom_site_fract_x
_atom_site_fract_y
_atom_site_fract_z
_atom_site_occupancy
O1 O 8 0.04490 0.74110 0.35700 1.0000
O2 O 8 0.57270 0.35150 0.61100 1.0000
O3 O 8 0.28170 0.60510 0.19170 1.0000
O4 O 8 0.28380 0.63260 0.54810 1.0000
O5 O 8 0.30130 0.75030 0.31790 1.0000
O6 O 8 0.65450 0.29890 0.14080 1.0000
O7 O 8 0.11760 0.64720 0.12860 1.0000
O8 O 8 0.20640 0.61180 0.85080 1.0000
O9 O 4 0.00000 0.75160 0.00000 1.0000
O10 O 4 0.16340 0.50000 0.07530 1.0000
Si1 Si 8 0.80770 0.40890 0.93830 1.0000
Si2 Si 8 0.07910 0.73440 0.15610 1.0000
Si3 Si 8 0.32330 0.65870 0.36120 1.0000
Si4 Si 8 0.25850 0.67350 0.73510 1.0000
Si5 Si 4 0.00000 0.79640 0.50000 1.0000
Lr1 Lr 8 0.85291 0.23669 0.10765 1.0000
Lr2 Lr 4 0.75000 0.25000 0.00000 1.0000
Lr3 Lr 2 0.00000 0.50000 0.50000 1.0000
Lr4 Lr 2 0.00000 0.00000 0.00000 1.0000
loop_
_topos_bond_atom_site_label_1
_topos_bond_atom_site_label_2
_topos_bond_site_symmetry_1
_topos_bond_site_symmetry_2
_topos_bond_distance
_topos_bond_type
_topos_bond_multiplicity
O1 Si2 1_0_0_0 1_0_0_0 1.6100 V 8
O1 Si5 1_0_0_0 1_0_0_0 1.6100 V 8
O2 Si5 1_0_0_0 5_0_-1_0 1.6110 V 8
O2 Si3 1_0_0_0 3_1_1_1 1.6130 V 8
O3 Si3 1_0_0_0 1_0_0_0 1.6090 V 8
O3 Si1 1_0_0_0 3_1_1_1 1.6100 V 8
O4 Si3 1_0_0_0 1_0_0_0 1.6100 V 8
O4 Si4 1_0_0_0 1_0_0_0 1.6110 V 8
O5 Si3 1_0_0_0 1_0_0_0 1.6090 V 8
O5 Si4 1_0_0_0 7_0_1_1 1.6100 V 8
O6 Si4 1_0_0_0 3_1_1_1 1.6100 V 8
O6 Si2 1_0_0_0 5_0_-1_0 1.6110 V 8
O7 Si2 1_0_0_0 1_0_0_0 1.6100 V 8
O7 Si1 1_0_0_0 3_1_1_1 1.6110 V 8
O8 Si4 1_0_0_0 1_0_0_0 1.6100 V 8
O8 Si1 1_0_0_0 3_1_1_2 1.6110 V 8
O9 Si2 1_0_0_0 1_0_0_0 1.6070 V 8
O10 Si1 1_0_0_0 2_1_0_1 1.6100 V 8
Lr1 Lr2 1_0_0_0 1_0_0_0 1.7160 V 8
Lr3 Lr3 1_0_0_0 1_0_0_1 7.2730 V 2
Lr3 Lr4 1_0_0_0 5_0_0_1 8.2060 V 4
Lr4 Lr4 1_0_0_0 1_0_0_-1 7.2730 V 2
#End of data_46-TOPOS_CGF-NT

data_47-TOPOS_CGS-PPT1
_audit_creation_date                2025-02-23
_audit_creation_method              ToposPro
_chemical_formula_structural        CGS-PPT1
_chemical_formula_sum               'Lr1 O16 Si8'
_citation_special_details
;
Space Group: PNMA->P n m a. File: CGS-PPT1.cif. 
;
_cell_length_a                      8.444
_cell_length_b                      14.083
_cell_length_c                      15.929
_cell_angle_alpha                   90
_cell_angle_beta                    90
_cell_angle_gamma                   90
_cell_volume                        1894.227
_cell_formula_units_Z               4
_symmetry_space_group_name_H-M      'P n m a'
_symmetry_Int_Tables_number         62
_refine_ls_R_factor_all             0
loop_
_symmetry_equiv_pos_site_id
_symmetry_equiv_pos_as_xyz
1 x,y,z
2 1/2-x,-y,1/2+z
3 1/2+x,1/2-y,1/2-z
4 -x,1/2+y,-z
5 -x,-y,-z
6 1/2+x,y,1/2-z
7 1/2-x,1/2+y,1/2+z
8 x,1/2-y,z
loop_
_atom_site_label
_atom_site_type_symbol
_atom_site_symmetry_multiplicity
_atom_site_fract_x
_atom_site_fract_y
_atom_site_fract_z
_atom_site_occupancy
O1 O 8 0.72980 0.12830 0.07270 1.0000
O2 O 8 0.97500 0.07150 0.16150 1.0000
O3 O 8 0.70860 0.11730 0.23700 1.0000
O4 O 8 0.56010 0.38730 0.93500 1.0000
O5 O 8 0.43300 0.42700 0.08150 1.0000
O6 O 8 0.03520 0.53350 0.29420 1.0000
O7 O 8 0.23300 0.53300 0.16640 1.0000
O8 O 4 0.88390 0.25000 0.16740 1.0000
O9 O 4 0.50080 0.25000 0.04240 1.0000
Si1 Si 8 0.82450 0.14170 0.15960 1.0000
Si2 Si 8 0.55580 0.35890 0.03290 1.0000
Si3 Si 8 0.11280 0.46950 0.22120 1.0000
Si4 Si 8 0.41040 0.97340 0.12960 1.0000
Lr1 Lr 4 0.21499 0.25000 0.96875 1.0000
loop_
_topos_bond_atom_site_label_1
_topos_bond_atom_site_label_2
_topos_bond_site_symmetry_1
_topos_bond_site_symmetry_2
_topos_bond_distance
_topos_bond_type
_topos_bond_multiplicity
O1 Si1 1_0_0_0 1_0_0_0 1.6100 V 8
O1 Si2 1_0_0_0 8_0_0_0 1.6100 V 8
O2 Si1 1_0_0_0 1_0_0_0 1.6100 V 8
O2 Si3 1_0_0_0 8_1_0_0 1.6100 V 8
O3 Si1 1_0_0_0 1_0_0_0 1.6110 V 8
O3 Si3 1_0_0_0 3_0_0_0 1.6100 V 8
O4 Si4 1_0_0_0 4_1_-1_1 1.6100 V 8
O4 Si2 1_0_0_0 1_0_0_1 1.6100 V 8
O5 Si2 1_0_0_0 1_0_0_0 1.6110 V 8
O5 Si4 1_0_0_0 8_0_1_0 1.6100 V 8
O6 Si3 1_0_0_0 1_0_0_0 1.6110 V 8
O6 Si4 1_0_0_0 3_-1_1_0 1.6100 V 8
O7 Si3 1_0_0_0 1_0_0_0 1.6100 V 8
O7 Si4 1_0_0_0 8_0_1_0 1.6110 V 8
O8 Si1 1_0_0_0 1_0_0_0 1.6100 V 8
O9 Si2 1_0_0_0 1_0_0_0 1.6100 V 8
Lr1 Lr1 1_0_0_0 4_0_0_2 7.9850 V 4
Lr1 Lr1 1_0_0_0 3_0_0_1 8.1480 V 4
#End of data_47-TOPOS_CGS-PPT1

data_48-TOPOS_CHA-PPT1
_audit_creation_date                2025-02-23
_audit_creation_method              ToposPro
_chemical_formula_structural        CHA-PPT1
_chemical_formula_sum               'Lr1 O12 Si6'
_citation_special_details
;
Space Group: R-3M->R -3 m. File: CHA-PPT1.cif. 
;
_cell_length_a                      13.675
_cell_length_b                      13.675
_cell_length_c                      14.767
_cell_angle_alpha                   90
_cell_angle_beta                    90
_cell_angle_gamma                   120
_cell_volume                        2391.54
_cell_formula_units_Z               6
_symmetry_space_group_name_H-M      'R -3 m'
_symmetry_Int_Tables_number         166
_refine_ls_R_factor_all             0
loop_
_symmetry_equiv_pos_site_id
_symmetry_equiv_pos_as_xyz
1 x,y,z
2 -y,x-y,z
3 -x+y,-x,z
4 x-y,-y,-z
5 -x,-x+y,-z
6 y,x,-z
7 -x,-y,-z
8 y,-x+y,-z
9 x-y,x,-z
10 -x+y,y,z
11 x,x-y,z
12 -y,-x,z
13 2/3+x,1/3+y,1/3+z
14 1/3+x,2/3+y,2/3+z
15 2/3-y,1/3+x-y,1/3+z
16 1/3-y,2/3+x-y,2/3+z
17 2/3-x+y,1/3-x,1/3+z
18 1/3-x+y,2/3-x,2/3+z
19 2/3+x-y,1/3-y,1/3-z
20 1/3+x-y,2/3-y,2/3-z
21 2/3-x,1/3-x+y,1/3-z
22 1/3-x,2/3-x+y,2/3-z
23 2/3+y,1/3+x,1/3-z
24 1/3+y,2/3+x,2/3-z
25 2/3-x,1/3-y,1/3-z
26 1/3-x,2/3-y,2/3-z
27 2/3+y,1/3-x+y,1/3-z
28 1/3+y,2/3-x+y,2/3-z
29 2/3+x-y,1/3+x,1/3-z
30 1/3+x-y,2/3+x,2/3-z
31 2/3-x+y,1/3+y,1/3+z
32 1/3-x+y,2/3+y,2/3+z
33 2/3+x,1/3+x-y,1/3+z
34 1/3+x,2/3+x-y,2/3+z
35 2/3-y,1/3-x,1/3+z
36 1/3-y,2/3-x,2/3+z
loop_
_atom_site_label
_atom_site_type_symbol
_atom_site_symmetry_multiplicity
_atom_site_fract_x
_atom_site_fract_y
_atom_site_fract_z
_atom_site_occupancy
O1 O 18 0.90200 0.09800 0.12270 1.0000
O2 O 18 0.97673 0.31007 0.16667 1.0000
O3 O 18 0.12025 0.24050 0.13150 1.0000
O4 O 18 0.00000 0.25770 0.00000 1.0000
Si1 Si 36 0.99970 0.22640 0.10510 1.0000
Lr1 Lr 3 0.00000 0.00000 0.00000 1.0000
Lr2 Lr 3 0.33333 0.66667 0.16667 1.0000
loop_
_topos_bond_atom_site_label_1
_topos_bond_atom_site_label_2
_topos_bond_site_symmetry_1
_topos_bond_site_symmetry_2
_topos_bond_distance
_topos_bond_type
_topos_bond_multiplicity
O1 Si1 1_0_0_0 1_0_0_0 1.6090 V 36
O2 Si1 1_0_0_0 1_0_0_0 1.6100 V 36
O3 Si1 1_0_0_0 1_-1_0_0 1.6090 V 36
O4 Si1 1_0_0_0 1_-1_0_0 1.6090 V 36
Lr2 Lr2 1_0_0_0 4_0_1_0 9.3040 V 9
#End of data_48-TOPOS_CHA-PPT1

data_49-TOPOS_CHI-PPT1
_audit_creation_date                2025-02-23
_audit_creation_method              ToposPro
_chemical_formula_structural        CHI-PPT1
_chemical_formula_sum               'Lr4 O15 Si7'
_citation_special_details
;
Space Group: PBCN->P b c n. File: CHI-PPT1.cif. 
;
_cell_length_a                      5.01
_cell_length_b                      31.234
_cell_length_c                      9.012
_cell_angle_alpha                   90
_cell_angle_beta                    90
_cell_angle_gamma                   90
_cell_volume                        1410.219
_cell_formula_units_Z               4
_symmetry_space_group_name_H-M      'P b c n'
_symmetry_Int_Tables_number         60
_refine_ls_R_factor_all             0
loop_
_symmetry_equiv_pos_site_id
_symmetry_equiv_pos_as_xyz
1 x,y,z
2 1/2-x,1/2-y,1/2+z
3 1/2+x,1/2-y,-z
4 -x,y,1/2-z
5 -x,-y,-z
6 1/2+x,1/2+y,1/2-z
7 1/2-x,1/2+y,z
8 x,-y,1/2+z
loop_
_atom_site_label
_atom_site_type_symbol
_atom_site_symmetry_multiplicity
_atom_site_fract_x
_atom_site_fract_y
_atom_site_fract_z
_atom_site_occupancy
O1 O 8 0.71120 0.76230 0.51580 1.0000
O2 O 8 0.34500 0.81760 0.43260 1.0000
O3 O 8 0.80780 0.10290 0.52430 1.0000
O4 O 8 0.81980 0.03360 0.35600 1.0000
O5 O 8 0.81440 0.02620 0.64720 1.0000
O6 O 8 0.24010 0.05560 0.51190 1.0000
O7 O 4 0.50000 0.75670 0.25000 1.0000
O8 O 4 0.00000 0.14710 0.75000 1.0000
O9 O 4 0.50000 0.12180 0.75000 1.0000
Si1 Si 8 0.44200 0.76860 0.42070 1.0000
Si2 Si 8 0.74230 0.13860 0.64790 1.0000
Si3 Si 8 0.91850 0.05470 0.50980 1.0000
Si4 Si 4 0.00000 0.99620 0.75000 1.0000
Lr1 Lr 8 0.19404 0.80306 0.16399 1.0000
Lr2 Lr 4 0.50000 0.90096 0.75000 1.0000
Lr3 Lr 4 0.00000 0.78250 0.25000 1.0000
loop_
_topos_bond_atom_site_label_1
_topos_bond_atom_site_label_2
_topos_bond_site_symmetry_1
_topos_bond_site_symmetry_2
_topos_bond_distance
_topos_bond_type
_topos_bond_multiplicity
O1 Si1 1_0_0_0 1_0_0_0 1.6100 V 8
O1 Si1 1_0_0_0 3_0_1_1 1.6110 V 8
O2 Si1 1_0_0_0 1_0_0_0 1.6090 V 8
O2 Si2 1_0_0_0 5_1_1_1 1.6090 V 8
O3 Si3 1_0_0_0 1_0_0_0 1.6100 V 8
O3 Si2 1_0_0_0 1_0_0_0 1.6100 V 8
O4 Si3 1_0_0_0 1_0_0_0 1.6120 V 8
O4 Si4 1_0_0_0 5_1_1_1 1.6110 V 8
O5 Si3 1_0_0_0 1_0_0_0 1.6120 V 8
O5 Si4 1_0_0_0 1_1_-1_0 1.6130 V 8
O6 Si3 1_0_0_0 1_-1_0_0 1.6120 V 8
O7 Si1 1_0_0_0 1_0_0_0 1.6090 V 8
O8 Si2 1_0_0_0 1_-1_0_0 1.6070 V 8
O9 Si2 1_0_0_0 1_0_0_0 1.6110 V 8
Lr1 Lr3 1_0_0_0 1_0_0_0 1.3990 V 8
Lr2 Lr2 1_0_0_0 1_-1_0_0 5.0100 V 4
Lr2 Lr2 1_0_0_0 5_1_2_2 7.6540 V 4
#End of data_49-TOPOS_CHI-PPT1

data_50-TOPOS_CLO-PPT1
_audit_creation_date                2025-02-23
_audit_creation_method              ToposPro
_chemical_formula_structural        CLO-PPT1
_chemical_formula_sum               'Lr41 O396 Si192'
_citation_special_details
;
Space Group: PM-3M->P m -3 m. File: CLO-PPT1.cif. 
;
_cell_length_a                      25.84
_cell_length_b                      25.84
_cell_length_c                      25.84
_cell_angle_alpha                   90
_cell_angle_beta                    90
_cell_angle_gamma                   90
_cell_volume                        17253.51
_cell_formula_units_Z               1
_symmetry_space_group_name_H-M      'P m -3 m'
_symmetry_Int_Tables_number         221
_refine_ls_R_factor_all             0
loop_
_symmetry_equiv_pos_site_id
_symmetry_equiv_pos_as_xyz
1 x,y,z
2 -x,-y,z
3 x,-y,-z
4 -x,y,-z
5 z,x,y
6 y,z,x
7 -z,-x,y
8 -y,z,-x
9 z,-x,-y
10 -y,-z,x
11 -z,x,-y
12 y,-z,-x
13 -y,-x,-z
14 y,x,-z
15 y,-x,z
16 -y,x,z
17 -x,-z,-y
18 -z,-y,-x
19 x,z,-y
20 -z,y,x
21 x,-z,y
22 z,y,-x
23 -x,z,y
24 z,-y,x
25 -x,-y,-z
26 x,y,-z
27 -x,y,z
28 x,-y,z
29 -z,-x,-y
30 -y,-z,-x
31 z,x,-y
32 y,-z,x
33 -z,x,y
34 y,z,-x
35 z,-x,y
36 -y,z,x
37 y,x,z
38 -y,-x,z
39 -y,x,-z
40 y,-x,-z
41 x,z,y
42 z,y,x
43 -x,-z,y
44 z,-y,-x
45 -x,z,-y
46 -z,-y,x
47 x,-z,-y
48 -z,y,-x
loop_
_atom_site_label
_atom_site_type_symbol
_atom_site_symmetry_multiplicity
_atom_site_fract_x
_atom_site_fract_y
_atom_site_fract_z
_atom_site_occupancy
O1 O 48 0.21510 0.67400 0.43300 1.0000
O2 O 48 0.13590 0.73110 0.40400 1.0000
O3 O 48 0.05090 0.74870 0.64910 1.0000
O4 O 48 0.05090 0.67970 0.57440 1.0000
O5 O 24 0.16920 0.73550 0.50000 1.0000
O6 O 24 0.27920 0.63220 0.50000 1.0000
O7 O 24 0.22510 0.77490 0.42460 1.0000
O8 O 24 0.31550 0.68450 0.57930 1.0000
O9 O 24 0.27160 0.59370 0.59370 1.0000
O10 O 24 0.10120 0.66090 0.66090 1.0000
O11 O 12 0.00000 0.59370 0.40630 1.0000
O12 O 12 0.00000 0.63250 0.50000 1.0000
O13 O 12 0.00000 0.73630 0.73630 1.0000
O14 O 24 0.00000 0.68980 0.82680 1.0000
Si1 Si 48 0.18630 0.72880 0.44050 1.0000
Si2 Si 48 0.27030 0.64610 0.56010 1.0000
Si3 Si 48 0.08470 0.70510 0.62020 1.0000
Si4 Si 24 0.00000 0.64650 0.43930 1.0000
Si5 Si 24 0.00000 0.68110 0.76510 1.0000
Lr1 Lr 12 0.00000 0.66300 0.66300 1.0000
Lr2 Lr 12 0.27043 0.72957 0.50000 1.0000
Lr3 Lr 3 0.00000 0.00000 0.50000 1.0000
Lr4 Lr 1 0.00000 0.00000 0.00000 1.0000
Lr5 Lr 6 0.13532 0.50000 0.50000 1.0000
Lr6 Lr 1 0.50000 0.50000 0.50000 1.0000
Lr7 Lr 6 0.00000 0.00000 0.60020 1.0000
loop_
_topos_bond_atom_site_label_1
_topos_bond_atom_site_label_2
_topos_bond_site_symmetry_1
_topos_bond_site_symmetry_2
_topos_bond_distance
_topos_bond_type
_topos_bond_multiplicity
O1 Si1 1_0_0_0 1_0_0_0 1.6110 V 48
O1 Si2 1_0_0_0 26_0_0_1 1.6080 V 48
O2 Si1 1_0_0_0 1_0_0_0 1.6090 V 48
O2 Si3 1_0_0_0 26_0_0_1 1.6100 V 48
O3 Si3 1_0_0_0 1_0_0_0 1.6090 V 48
O3 Si5 1_0_0_0 23_0_0_0 1.6100 V 48
O4 Si3 1_0_0_0 1_0_0_0 1.6110 V 48
O4 Si4 1_0_0_0 4_0_0_1 1.6100 V 48
O5 Si1 1_0_0_0 1_0_0_0 1.6090 V 48
O6 Si2 1_0_0_0 1_0_0_0 1.6100 V 48
O7 Si1 1_0_0_0 1_0_0_0 1.6100 V 48
O8 Si2 1_0_0_0 1_0_0_0 1.6110 V 48
O9 Si2 1_0_0_0 1_0_0_0 1.6090 V 48
O10 Si3 1_0_0_0 1_0_0_0 1.6100 V 48
O11 Si4 1_0_0_0 1_0_0_0 1.6090 V 24
O12 Si4 1_0_0_0 1_0_0_0 1.6100 V 24
O13 Si5 1_0_0_0 1_0_0_0 1.6090 V 24
O14 Si5 1_0_0_0 1_0_0_0 1.6100 V 24
Lr3 Lr7 1_0_0_0 1_0_0_0 2.5890 V 6
Lr4 Lr7 1_0_0_0 5_-1_0_0 10.3310 V 6
Lr5 Lr6 1_0_0_0 1_0_0_0 9.4230 V 6
Lr5 Lr5 1_0_0_0 2_0_1_0 6.9930 V 3
#End of data_50-TOPOS_CLO-PPT1

data_51-TOPOS_-NT
_audit_creation_date                2025-02-23
_audit_creation_method              ToposPro
_chemical_formula_structural        -NT
_chemical_formula_sum               'Lr4 O14 Si7'
_citation_special_details
;
Space Group: C2/M->C 2/m. File: CON_-NT.cif. 
;
_cell_length_a                      22.684
_cell_length_b                      13.373
_cell_length_c                      12.553
_cell_angle_alpha                   90
_cell_angle_beta                    69.479
_cell_angle_gamma                   90
_cell_volume                        3566.351
_cell_formula_units_Z               8
_symmetry_space_group_name_H-M      'C 2/m'
_symmetry_Int_Tables_number         12
_refine_ls_R_factor_all             0
loop_
_symmetry_equiv_pos_site_id
_symmetry_equiv_pos_as_xyz
1 x,y,z
2 -x,y,-z
3 -x,-y,-z
4 x,-y,z
5 1/2+x,1/2+y,z
6 1/2-x,1/2+y,-z
7 1/2-x,1/2-y,-z
8 1/2+x,1/2-y,z
loop_
_atom_site_label
_atom_site_type_symbol
_atom_site_symmetry_multiplicity
_atom_site_fract_x
_atom_site_fract_y
_atom_site_fract_z
_atom_site_occupancy
O1 O 8 0.11960 0.18180 0.38230 1.0000
O2 O 8 0.08460 0.13410 0.59840 1.0000
O3 O 8 0.22190 0.12920 0.21290 1.0000
O4 O 8 0.18050 0.31390 0.22770 1.0000
O5 O 8 0.11770 0.16900 0.17450 1.0000
O6 O 8 0.11770 0.18670 0.77150 1.0000
O7 O 8 0.00020 0.13880 0.80510 1.0000
O8 O 8 0.26950 0.14440 0.99030 1.0000
O9 O 8 0.33930 0.18630 0.11320 1.0000
O10 O 8 0.20160 0.12800 0.85920 1.0000
O11 O 8 0.08570 0.16710 0.99280 1.0000
O12 O 4 0.00000 0.15060 0.50000 1.0000
O13 O 4 0.07960 0.00000 0.44850 1.0000
O14 O 4 0.08780 0.00000 0.74950 1.0000
O15 O 4 0.30700 0.00000 0.09410 1.0000
O16 O 4 0.29280 0.00000 0.83900 1.0000
O17 O 4 0.08500 0.00000 0.10350 1.0000
Si1 Si 8 0.07090 0.11650 0.48250 1.0000
Si2 Si 8 0.15980 0.19830 0.24960 1.0000
Si3 Si 8 0.07250 0.11490 0.73100 1.0000
Si4 Si 8 0.28450 0.11480 0.10260 1.0000
Si5 Si 8 0.27080 0.11460 0.86530 1.0000
Si6 Si 8 0.07190 0.11840 0.11660 1.0000
Si7 Si 8 0.14150 0.19900 0.87760 1.0000
Lr1 Lr 4 0.92605 0.00000 0.71037 1.0000
Lr2 Lr 4 0.36336 0.00000 0.42509 1.0000
Lr3 Lr 4 0.18570 0.00000 0.04234 1.0000
Lr4 Lr 4 0.45145 0.00000 0.90376 1.0000
Lr5 Lr 4 0.13917 0.00000 0.89763 1.0000
Lr6 Lr 4 0.25000 0.25000 0.50000 1.0000
Lr7 Lr 4 0.25000 0.25000 0.00000 1.0000
Lr8 Lr 2 0.00000 0.00000 0.00000 1.0000
Lr9 Lr 2 0.00000 0.50000 0.00000 1.0000
loop_
_topos_bond_atom_site_label_1
_topos_bond_atom_site_label_2
_topos_bond_site_symmetry_1
_topos_bond_site_symmetry_2
_topos_bond_distance
_topos_bond_type
_topos_bond_multiplicity
O1 Si2 1_0_0_0 1_0_0_0 1.6090 V 8
O1 Si1 1_0_0_0 1_0_0_0 1.6100 V 8
O2 Si1 1_0_0_0 1_0_0_0 1.6080 V 8
O2 Si3 1_0_0_0 1_0_0_0 1.6100 V 8
O3 Si4 1_0_0_0 1_0_0_0 1.6100 V 8
O3 Si2 1_0_0_0 1_0_0_0 1.6110 V 8
O4 Si2 1_0_0_0 1_0_0_0 1.6110 V 8
O4 Si5 1_0_0_0 7_0_0_1 1.6100 V 8
O5 Si2 1_0_0_0 1_0_0_0 1.6080 V 8
O5 Si6 1_0_0_0 1_0_0_0 1.6110 V 8
O6 Si7 1_0_0_0 1_0_0_0 1.6110 V 8
O6 Si3 1_0_0_0 1_0_0_0 1.6120 V 8
O7 Si3 1_0_0_0 1_0_0_0 1.6090 V 8
O7 Si6 1_0_0_0 2_0_0_1 1.6090 V 8
O8 Si5 1_0_0_0 1_0_0_0 1.6090 V 8
O8 Si4 1_0_0_0 1_0_0_1 1.6110 V 8
O9 Si4 1_0_0_0 1_0_0_0 1.6100 V 8
O9 Si7 1_0_0_0 7_0_0_1 1.6100 V 8
O10 Si5 1_0_0_0 1_0_0_0 1.6080 V 8
O10 Si7 1_0_0_0 1_0_0_0 1.6100 V 8
O11 Si7 1_0_0_0 1_0_0_0 1.6100 V 8
O11 Si6 1_0_0_0 1_0_0_1 1.6110 V 8
O12 Si1 1_0_0_0 1_0_0_0 1.6110 V 8
O13 Si1 1_0_0_0 1_0_0_0 1.6090 V 8
O14 Si3 1_0_0_0 1_0_0_0 1.6100 V 8
O15 Si4 1_0_0_0 1_0_0_0 1.6100 V 8
O16 Si5 1_0_0_0 1_0_0_0 1.6100 V 8
O17 Si6 1_0_0_0 1_0_0_0 1.6090 V 8
Lr2 Lr6 1_0_0_0 1_0_0_0 4.1210 V 8
Lr2 Lr4 1_0_0_0 2_1_0_1 4.7470 V 4
Lr2 Lr2 1_0_0_0 2_1_0_1 7.0810 V 2
Lr3 Lr5 1_0_0_0 1_0_0_-1 2.4000 V 4
Lr4 Lr9 1_0_0_0 5_0_-1_1 1.8990 V 4
Lr5 Lr8 1_0_0_0 1_0_0_1 2.9620 V 4
#End of data_51-TOPOS_-NT

data_52-TOPOS_CSV-PPT1
_audit_creation_date                2025-02-23
_audit_creation_method              ToposPro
_chemical_formula_structural        CSV-PPT1
_chemical_formula_sum               'Lr3 O20 Si10'
_citation_special_details
;
Space Group: P-1->P -1. File: CSV-PPT1.cif. 
;
_cell_length_a                      13.027
_cell_length_b                      11.1822
_cell_length_c                      9.2189
_cell_angle_alpha                   92.35
_cell_angle_beta                    107.3
_cell_angle_gamma                   104.5
_cell_volume                        1231.607
_cell_formula_units_Z               2
_symmetry_space_group_name_H-M      'P -1'
_symmetry_Int_Tables_number         2
_refine_ls_R_factor_all             0
loop_
_symmetry_equiv_pos_site_id
_symmetry_equiv_pos_as_xyz
1 x,y,z
2 -x,-y,-z
loop_
_atom_site_label
_atom_site_type_symbol
_atom_site_symmetry_multiplicity
_atom_site_fract_x
_atom_site_fract_y
_atom_site_fract_z
_atom_site_occupancy
O1 O 2 0.23522 0.50073 0.04830 1.0000
O2 O 2 0.35815 0.42043 0.28854 1.0000
O3 O 2 0.31679 0.63613 0.31884 1.0000
O4 O 2 0.15481 0.42942 0.26755 1.0000
O5 O 2 0.36851 0.68044 0.96262 1.0000
O6 O 2 0.16879 0.57380 0.77454 1.0000
O7 O 2 0.32046 0.44829 0.83827 1.0000
O8 O 2 0.34409 0.25571 0.68677 1.0000
O9 O 2 0.42320 0.48427 0.63298 1.0000
O10 O 2 0.20446 0.37782 0.54970 1.0000
O11 O 2 0.11965 0.56535 0.47675 1.0000
O12 O 2 0.99254 0.33633 0.38182 1.0000
O13 O 2 0.32614 0.01513 0.65821 1.0000
O14 O 2 0.51802 0.17604 0.68701 1.0000
O15 O 2 0.43887 0.15366 0.92132 1.0000
O16 O 2 0.42937 0.86219 0.80594 1.0000
O17 O 2 0.21660 0.78094 0.64782 1.0000
O18 O 2 0.36831 0.84023 0.50510 1.0000
O19 O 2 0.47330 0.31836 0.15866 1.0000
O20 O 2 0.49459 0.30109 0.44978 1.0000
Si1 Si 2 0.26717 0.49679 0.23026 1.0000
Si2 Si 2 0.27274 0.55021 0.90534 1.0000
Si3 Si 2 0.32366 0.39160 0.67674 1.0000
Si4 Si 2 0.11722 0.42648 0.41902 1.0000
Si5 Si 2 0.40734 0.15045 0.73824 1.0000
Si6 Si 2 0.33440 0.87371 0.65293 1.0000
Si7 Si 2 0.12898 0.64698 0.63056 1.0000
Si8 Si 2 0.47609 0.38923 0.31597 1.0000
Si9 Si 2 0.47210 0.76808 0.92185 1.0000
Si10 Si 2 0.41851 0.75018 0.42197 1.0000
Lr1 Lr 2 0.31763 0.61276 0.61586 1.0000
Lr2 Lr 2 0.42758 0.44095 0.53711 1.0000
Lr3 Lr 1 0.00000 0.00000 0.00000 1.0000
Lr4 Lr 1 0.50000 0.50000 0.00000 1.0000
loop_
_topos_bond_atom_site_label_1
_topos_bond_atom_site_label_2
_topos_bond_site_symmetry_1
_topos_bond_site_symmetry_2
_topos_bond_distance
_topos_bond_type
_topos_bond_multiplicity
O1 Si1 1_0_0_0 1_0_0_0 1.6090 V 2
O1 Si2 1_0_0_0 1_0_0_-1 1.6090 V 2
O2 Si1 1_0_0_0 1_0_0_0 1.6090 V 2
O2 Si8 1_0_0_0 1_0_0_0 1.6100 V 2
O3 Si1 1_0_0_0 1_0_0_0 1.6090 V 2
O3 Si10 1_0_0_0 1_0_0_0 1.6100 V 2
O4 Si4 1_0_0_0 1_0_0_0 1.6100 V 2
O4 Si1 1_0_0_0 1_0_0_0 1.6110 V 2
O5 Si2 1_0_0_0 1_0_0_0 1.6100 V 2
O5 Si9 1_0_0_0 1_0_0_0 1.6100 V 2
O6 Si2 1_0_0_0 1_0_0_0 1.6100 V 2
O6 Si7 1_0_0_0 1_0_0_0 1.6100 V 2
O7 Si2 1_0_0_0 1_0_0_0 1.6100 V 2
O7 Si3 1_0_0_0 1_0_0_0 1.6110 V 2
O8 Si3 1_0_0_0 1_0_0_0 1.6090 V 2
O8 Si5 1_0_0_0 1_0_0_0 1.6090 V 2
O9 Si3 1_0_0_0 1_0_0_0 1.6100 V 2
O9 Si8 1_0_0_0 2_1_1_1 1.6100 V 2
O10 Si4 1_0_0_0 1_0_0_0 1.6090 V 2
O10 Si3 1_0_0_0 1_0_0_0 1.6090 V 2
O11 Si4 1_0_0_0 1_0_0_0 1.6100 V 2
O11 Si7 1_0_0_0 1_0_0_0 1.6110 V 2
O12 Si4 1_0_0_0 1_1_0_0 1.6100 V 2
O12 Si7 1_0_0_0 2_1_1_1 1.6110 V 2
O13 Si5 1_0_0_0 1_0_0_0 1.6110 V 2
O13 Si6 1_0_0_0 1_0_-1_0 1.6110 V 2
O14 Si5 1_0_0_0 1_0_0_0 1.6100 V 2
O14 Si10 1_0_0_0 2_1_1_1 1.6110 V 2
O15 Si5 1_0_0_0 1_0_0_0 1.6110 V 2
O15 Si9 1_0_0_0 2_1_1_2 1.6100 V 2
O16 Si9 1_0_0_0 1_0_0_0 1.6100 V 2
O16 Si6 1_0_0_0 1_0_0_0 1.6110 V 2
O17 Si7 1_0_0_0 1_0_0_0 1.6090 V 2
O17 Si6 1_0_0_0 1_0_0_0 1.6090 V 2
O18 Si6 1_0_0_0 1_0_0_0 1.6100 V 2
O18 Si10 1_0_0_0 1_0_0_0 1.6100 V 2
O19 Si8 1_0_0_0 1_0_0_0 1.6100 V 2
O19 Si9 1_0_0_0 2_1_1_1 1.6100 V 2
O20 Si8 1_0_0_0 1_0_0_0 1.6100 V 2
O20 Si10 1_0_0_0 2_1_1_1 1.6100 V 2
Lr1 Lr2 1_0_0_0 1_0_0_0 2.8550 V 2
Lr2 Lr2 1_0_0_0 2_1_1_1 2.3170 V 1
Lr3 Lr3 1_0_0_0 1_0_-1_0 11.1820 V 1
Lr3 Lr3 1_0_0_0 1_0_0_-1 9.2190 V 1
#End of data_52-TOPOS_CSV-PPT1

data_53-TOPOS_CZP-NT
_audit_creation_date                2025-02-23
_audit_creation_method              ToposPro
_chemical_formula_structural        CZP-NT
_chemical_formula_sum               'Lr3 O8 Si4'
_citation_special_details
;
Space Group: P6122->P 61 2 2. File: CZP-NT.cif. 
;
_cell_length_a                      9.355
_cell_length_b                      9.355
_cell_length_c                      14.862
_cell_angle_alpha                   90
_cell_angle_beta                    90
_cell_angle_gamma                   120
_cell_volume                        1126.407
_cell_formula_units_Z               6
_symmetry_space_group_name_H-M      'P 61 2 2'
_symmetry_Int_Tables_number         178
_refine_ls_R_factor_all             0
loop_
_symmetry_equiv_pos_site_id
_symmetry_equiv_pos_as_xyz
1 x,y,z
2 -x,-y,1/2+z
3 -y,x-y,1/3+z
4 -x+y,-x,2/3+z
5 x-y,x,1/6+z
6 y,-x+y,5/6+z
7 x-y,-y,-z
8 -x,-x+y,2/3-z
9 y,x,1/3-z
10 -y,-x,5/6-z
11 x,x-y,1/6-z
12 -x+y,y,1/2-z
loop_
_atom_site_label
_atom_site_type_symbol
_atom_site_symmetry_multiplicity
_atom_site_fract_x
_atom_site_fract_y
_atom_site_fract_z
_atom_site_occupancy
O1 O 12 0.83530 0.55110 0.32990 1.0000
O2 O 12 0.01640 0.78330 0.21050 1.0000
O3 O 12 0.65750 0.60640 0.44670 1.0000
O4 O 12 0.82010 0.45620 0.49990 1.0000
Si1 Si 12 0.82100 0.59280 0.43370 1.0000
Si2 Si 6 0.46780 0.53220 0.41667 1.0000
Si3 Si 6 0.83333 0.66667 0.25000 1.0000
Lr1 Lr 6 0.25586 0.74414 0.41667 1.0000
Lr2 Lr 6 0.78313 0.89156 0.58333 1.0000
Lr3 Lr 6 0.00000 0.32052 0.33333 1.0000
loop_
_topos_bond_atom_site_label_1
_topos_bond_atom_site_label_2
_topos_bond_site_symmetry_1
_topos_bond_site_symmetry_2
_topos_bond_distance
_topos_bond_type
_topos_bond_multiplicity
O1 Si3 1_0_0_0 1_0_0_0 1.6120 V 12
O1 Si1 1_0_0_0 1_0_0_0 1.6130 V 12
O2 Si3 1_0_0_0 1_-1_0_0 1.6120 V 12
O2 Si1 1_0_0_0 8_1_1_0 1.6130 V 12
O3 Si1 1_0_0_0 1_0_0_0 1.6090 V 12
O3 Si2 1_0_0_0 1_0_0_0 1.6120 V 12
O4 Si1 1_0_0_0 1_0_0_0 1.6090 V 12
O4 Si2 1_0_0_0 5_1_0_0 1.6120 V 12
Lr2 Lr3 1_0_0_0 3_1_1_0 2.1180 V 12
#End of data_53-TOPOS_CZP-NT

data_54-TOPOS_DAC-PPT1
_audit_creation_date                2025-02-23
_audit_creation_method              ToposPro
_chemical_formula_structural        DAC-PPT1
_chemical_formula_sum               'Lr5 O24 Si12'
_citation_special_details
;
Space Group: C2/M->C 2/m. File: DAC-PPT1.cif. 
;
_cell_length_a                      18.574
_cell_length_b                      7.542
_cell_length_c                      10.377
_cell_angle_alpha                   90
_cell_angle_beta                    108.917
_cell_angle_gamma                   90
_cell_volume                        1375.15
_cell_formula_units_Z               2
_symmetry_space_group_name_H-M      'C 2/m'
_symmetry_Int_Tables_number         12
_refine_ls_R_factor_all             0
loop_
_symmetry_equiv_pos_site_id
_symmetry_equiv_pos_as_xyz
1 x,y,z
2 -x,y,-z
3 -x,-y,-z
4 x,-y,z
5 1/2+x,1/2+y,z
6 1/2-x,1/2+y,-z
7 1/2-x,1/2-y,-z
8 1/2+x,1/2-y,z
loop_
_atom_site_label
_atom_site_type_symbol
_atom_site_symmetry_multiplicity
_atom_site_fract_x
_atom_site_fract_y
_atom_site_fract_z
_atom_site_occupancy
O1 O 8 0.13820 0.17430 0.77650 1.0000
O2 O 8 0.27410 0.24920 0.76420 1.0000
O3 O 8 0.11430 0.17420 0.33000 1.0000
O4 O 4 0.25000 0.25000 0.00000 1.0000
O5 O 4 0.19050 0.50000 0.82040 1.0000
O6 O 4 0.16620 0.50000 0.34650 1.0000
O7 O 4 0.25000 0.25000 0.50000 1.0000
O8 O 4 0.00960 0.00000 0.67770 1.0000
O9 O 4 0.10910 0.00000 0.54600 1.0000
Si1 Si 8 0.21330 0.29350 0.84040 1.0000
Si2 Si 8 0.18940 0.29380 0.35330 1.0000
Si3 Si 4 0.09870 0.00000 0.69400 1.0000
Si4 Si 4 0.08190 0.00000 0.38210 1.0000
Lr1 Lr 4 0.20090 0.00000 0.59461 1.0000
Lr2 Lr 2 0.00000 0.50000 0.50000 1.0000
Lr3 Lr 2 0.50000 0.50000 0.00000 1.0000
Lr4 Lr 2 0.00000 0.50000 0.00000 1.0000
loop_
_topos_bond_atom_site_label_1
_topos_bond_atom_site_label_2
_topos_bond_site_symmetry_1
_topos_bond_site_symmetry_2
_topos_bond_distance
_topos_bond_type
_topos_bond_multiplicity
O1 Si3 1_0_0_0 1_0_0_0 1.6100 V 8
O1 Si1 1_0_0_0 1_0_0_0 1.6110 V 8
O2 Si1 1_0_0_0 1_0_0_0 1.6100 V 8
O2 Si2 1_0_0_0 7_0_0_1 1.6090 V 8
O3 Si4 1_0_0_0 1_0_0_0 1.6100 V 8
O3 Si2 1_0_0_0 1_0_0_0 1.6120 V 8
O4 Si1 1_0_0_0 1_0_0_-1 1.6070 V 8
O5 Si1 1_0_0_0 1_0_0_0 1.6100 V 8
O6 Si2 1_0_0_0 1_0_0_0 1.6090 V 8
O7 Si2 1_0_0_0 1_0_0_0 1.6070 V 8
O8 Si3 1_0_0_0 1_0_0_0 1.6080 V 4
O8 Si4 1_0_0_0 2_0_0_1 1.6090 V 4
O9 Si3 1_0_0_0 1_0_0_0 1.6090 V 4
O9 Si4 1_0_0_0 1_0_0_0 1.6100 V 4
Lr2 Lr4 1_0_0_0 1_0_0_0 5.1890 V 4
Lr3 Lr4 1_0_0_0 5_0_-1_0 3.7710 V 4
#End of data_54-TOPOS_DAC-PPT1

data_55-TOPOS_DDR-PPT1
_audit_creation_date                2025-02-23
_audit_creation_method              ToposPro
_chemical_formula_structural        DDR-PPT1
_chemical_formula_sum               'Lr3 O40 Si20'
_citation_special_details
;
Space Group: R-3M->R -3 m. File: DDR-PPT1.cif. 
;
_cell_length_a                      13.795
_cell_length_b                      13.795
_cell_length_c                      40.75
_cell_angle_alpha                   90
_cell_angle_beta                    90
_cell_angle_gamma                   120
_cell_volume                        6715.86
_cell_formula_units_Z               6
_symmetry_space_group_name_H-M      'R -3 m'
_symmetry_Int_Tables_number         166
_refine_ls_R_factor_all             0
loop_
_symmetry_equiv_pos_site_id
_symmetry_equiv_pos_as_xyz
1 x,y,z
2 -y,x-y,z
3 -x+y,-x,z
4 x-y,-y,-z
5 -x,-x+y,-z
6 y,x,-z
7 -x,-y,-z
8 y,-x+y,-z
9 x-y,x,-z
10 -x+y,y,z
11 x,x-y,z
12 -y,-x,z
13 2/3+x,1/3+y,1/3+z
14 1/3+x,2/3+y,2/3+z
15 2/3-y,1/3+x-y,1/3+z
16 1/3-y,2/3+x-y,2/3+z
17 2/3-x+y,1/3-x,1/3+z
18 1/3-x+y,2/3-x,2/3+z
19 2/3+x-y,1/3-y,1/3-z
20 1/3+x-y,2/3-y,2/3-z
21 2/3-x,1/3-x+y,1/3-z
22 1/3-x,2/3-x+y,2/3-z
23 2/3+y,1/3+x,1/3-z
24 1/3+y,2/3+x,2/3-z
25 2/3-x,1/3-y,1/3-z
26 1/3-x,2/3-y,2/3-z
27 2/3+y,1/3-x+y,1/3-z
28 1/3+y,2/3-x+y,2/3-z
29 2/3+x-y,1/3+x,1/3-z
30 1/3+x-y,2/3+x,2/3-z
31 2/3-x+y,1/3+y,1/3+z
32 1/3-x+y,2/3+y,2/3+z
33 2/3+x,1/3+x-y,1/3+z
34 1/3+x,2/3+x-y,2/3+z
35 2/3-y,1/3-x,1/3+z
36 1/3-y,2/3-x,2/3+z
loop_
_atom_site_label
_atom_site_type_symbol
_atom_site_symmetry_multiplicity
_atom_site_fract_x
_atom_site_fract_y
_atom_site_fract_z
_atom_site_occupancy
O1 O 36 0.68890 0.93940 0.08960 1.0000
O2 O 36 0.64390 0.09840 0.07930 1.0000
O3 O 36 0.72230 0.03080 0.03100 1.0000
O4 O 18 0.85390 0.14610 0.07990 1.0000
O5 O 18 0.10550 0.89450 0.00910 1.0000
O6 O 18 0.14955 0.29910 0.14550 1.0000
O7 O 18 0.06380 0.12760 0.10410 1.0000
O8 O 18 0.17385 0.34770 0.20830 1.0000
O9 O 18 0.06375 0.12750 0.20810 1.0000
O10 O 18 0.14228 0.47562 0.16667 1.0000
O11 O 6 0.00000 0.00000 0.15610 1.0000
Si1 Si 36 0.72810 0.05390 0.06980 1.0000
Si2 Si 18 0.13090 0.26180 0.10750 1.0000
Si3 Si 18 0.19995 0.39990 0.17180 1.0000
Si4 Si 18 0.11870 0.23740 0.23090 1.0000
Si5 Si 6 0.00000 0.00000 0.19560 1.0000
Si6 Si 6 0.00000 0.00000 0.11660 1.0000
Si7 Si 18 0.22560 0.00000 0.00000 1.0000
Lr1 Lr 3 0.00000 0.00000 0.00000 1.0000
Lr2 Lr 6 0.66667 0.33333 0.96515 1.0000
Lr3 Lr 9 0.83333 0.16667 0.16667 1.0000
loop_
_topos_bond_atom_site_label_1
_topos_bond_atom_site_label_2
_topos_bond_site_symmetry_1
_topos_bond_site_symmetry_2
_topos_bond_distance
_topos_bond_type
_topos_bond_multiplicity
O1 Si1 1_0_0_0 1_0_1_0 1.6080 V 36
O1 Si2 1_0_0_0 2_1_1_0 1.6110 V 36
O2 Si1 1_0_0_0 1_0_0_0 1.6090 V 36
O2 Si4 1_0_0_0 19_0_0_0 1.6110 V 36
O3 Si1 1_0_0_0 1_0_0_0 1.6070 V 36
O3 Si7 1_0_0_0 7_1_0_0 1.6120 V 36
O4 Si1 1_0_0_0 1_0_0_0 1.6100 V 36
O5 Si7 1_0_0_0 1_0_1_0 1.6090 V 36
O6 Si2 1_0_0_0 1_0_0_0 1.6110 V 18
O6 Si3 1_0_0_0 1_0_0_0 1.6120 V 18
O7 Si6 1_0_0_0 1_0_0_0 1.6070 V 18
O7 Si2 1_0_0_0 1_0_0_0 1.6090 V 18
O8 Si4 1_0_0_0 1_0_0_0 1.6080 V 18
O8 Si3 1_0_0_0 1_0_0_0 1.6130 V 18
O9 Si5 1_0_0_0 1_0_0_0 1.6060 V 18
O9 Si4 1_0_0_0 1_0_0_0 1.6080 V 18
O10 Si3 1_0_0_0 1_0_0_0 1.6120 V 36
O11 Si5 1_0_0_0 1_0_0_0 1.6100 V 6
O11 Si6 1_0_0_0 1_0_0_0 1.6100 V 6
Lr2 Lr2 1_0_0_0 4_0_1_2 8.4560 V 9
#End of data_55-TOPOS_DDR-PPT1

data_56-TOPOS_DFO-PPT1
_audit_creation_date                2025-02-23
_audit_creation_method              ToposPro
_chemical_formula_structural        DFO-PPT1
_chemical_formula_sum               'Lr21 O88 Si44'
_citation_special_details
;
Space Group: P6/MMM->P 6/m m m. File: DFO-PPT1.cif. 
;
_cell_length_a                      21.995
_cell_length_b                      21.995
_cell_length_c                      21.159
_cell_angle_alpha                   90
_cell_angle_beta                    90
_cell_angle_gamma                   120
_cell_volume                        8864.898
_cell_formula_units_Z               3
_symmetry_space_group_name_H-M      'P 6/m m m'
_symmetry_Int_Tables_number         191
_refine_ls_R_factor_all             0
loop_
_symmetry_equiv_pos_site_id
_symmetry_equiv_pos_as_xyz
1 x,y,z
2 -x,-y,z
3 -y,x-y,z
4 -x+y,-x,z
5 x-y,x,z
6 y,-x+y,z
7 x-y,-y,-z
8 -x,-x+y,-z
9 y,x,-z
10 -y,-x,-z
11 x,x-y,-z
12 -x+y,y,-z
13 -x,-y,-z
14 x,y,-z
15 y,-x+y,-z
16 x-y,x,-z
17 -x+y,-x,-z
18 -y,x-y,-z
19 -x+y,y,z
20 x,x-y,z
21 -y,-x,z
22 y,x,z
23 -x,-x+y,z
24 x-y,-y,z
loop_
_atom_site_label
_atom_site_type_symbol
_atom_site_symmetry_multiplicity
_atom_site_fract_x
_atom_site_fract_y
_atom_site_fract_z
_atom_site_occupancy
O1 O 24 0.10670 0.35770 0.69880 1.0000
O2 O 24 0.07640 0.31420 0.81660 1.0000
O3 O 24 0.64900 0.51900 0.26280 1.0000
O4 O 24 0.67620 0.54370 0.38410 1.0000
O5 O 24 0.10420 0.43880 0.85520 1.0000
O6 O 24 0.74730 0.65650 0.06200 1.0000
O7 O 12 0.12895 0.25790 0.74040 1.0000
O8 O 12 0.00000 0.23240 0.72360 1.0000
O9 O 12 0.00000 0.41680 0.77990 1.0000
O10 O 12 0.00000 0.41850 0.59540 1.0000
O11 O 12 0.76640 0.53280 0.30970 1.0000
O12 O 12 0.79905 0.59810 0.13690 1.0000
O13 O 12 0.08970 0.54485 0.81780 1.0000
O14 O 12 0.09920 0.54960 0.57830 1.0000
O15 O 12 0.08750 0.45160 0.50000 1.0000
O16 O 6 0.00000 0.23100 0.00000 1.0000
O17 O 6 0.13430 0.26860 0.00000 1.0000
Si1 Si 24 0.07800 0.29070 0.74490 1.0000
Si2 Si 24 0.71020 0.55920 0.31440 1.0000
Si3 Si 24 0.08080 0.47030 0.79750 1.0000
Si4 Si 24 0.07970 0.46890 0.57250 1.0000
Si5 Si 24 0.74350 0.62530 0.13160 1.0000
Si6 Si 12 0.07910 0.29650 0.00000 1.0000
Lr1 Lr 12 0.00000 0.34062 0.77410 1.0000
Lr2 Lr 12 0.00000 0.31354 0.85270 1.0000
Lr3 Lr 12 0.00000 0.36899 0.70012 1.0000
Lr4 Lr 4 0.33333 0.66667 0.77410 1.0000
Lr5 Lr 2 0.00000 0.00000 0.87110 1.0000
Lr6 Lr 1 0.00000 0.00000 0.50000 1.0000
Lr7 Lr 6 0.00000 0.50000 0.68520 1.0000
Lr8 Lr 3 0.00000 0.50000 0.00000 1.0000
Lr9 Lr 3 0.00000 0.50000 0.50000 1.0000
Lr10 Lr 2 0.33333 0.66667 0.50000 1.0000
Lr11 Lr 2 0.66667 0.33333 0.00000 1.0000
Lr12 Lr 4 0.66667 0.33333 0.31480 1.0000
loop_
_topos_bond_atom_site_label_1
_topos_bond_atom_site_label_2
_topos_bond_site_symmetry_1
_topos_bond_site_symmetry_2
_topos_bond_distance
_topos_bond_type
_topos_bond_multiplicity
O1 Si1 1_0_0_0 1_0_0_0 1.6100 V 24
O1 Si2 1_0_0_0 7_0_1_1 1.6080 V 24
O2 Si1 1_0_0_0 1_0_0_0 1.6090 V 24
O2 Si5 1_0_0_0 7_0_1_1 1.6110 V 24
O3 Si2 1_0_0_0 1_0_0_0 1.6110 V 24
O3 Si3 1_0_0_0 7_1_1_1 1.6120 V 24
O4 Si2 1_0_0_0 1_0_0_0 1.6110 V 24
O4 Si4 1_0_0_0 7_1_1_1 1.6100 V 24
O5 Si3 1_0_0_0 1_0_0_0 1.6100 V 24
O5 Si5 1_0_0_0 7_0_1_1 1.6110 V 24
O6 Si5 1_0_0_0 1_0_0_0 1.6090 V 24
O6 Si6 1_0_0_0 7_1_1_0 1.6090 V 24
O7 Si1 1_0_0_0 1_0_0_0 1.6110 V 24
O8 Si1 1_0_0_0 1_0_0_0 1.6100 V 24
O9 Si3 1_0_0_0 1_0_0_0 1.6100 V 24
O10 Si4 1_0_0_0 1_0_0_0 1.6100 V 24
O11 Si2 1_0_0_0 1_0_0_0 1.6100 V 24
O12 Si5 1_0_0_0 1_0_0_0 1.6110 V 24
O13 Si3 1_0_0_0 1_0_0_0 1.6100 V 24
O14 Si4 1_0_0_0 1_0_0_0 1.6090 V 24
O15 Si4 1_0_0_0 1_0_0_0 1.6100 V 24
O16 Si6 1_0_0_0 1_0_0_0 1.6110 V 12
O17 Si6 1_0_0_0 1_0_0_0 1.6110 V 12
Lr1 Lr2 1_0_0_0 1_0_0_0 1.7670 V 12
Lr1 Lr3 1_0_0_0 1_0_0_0 1.6850 V 12
Lr3 Lr7 1_0_0_0 1_0_0_0 2.8990 V 12
Lr4 Lr11 1_0_0_0 2_1_1_1 4.7800 V 4
Lr4 Lr12 1_0_0_0 7_0_1_1 1.8810 V 4
Lr5 Lr6 1_0_0_0 1_0_0_0 7.8520 V 2
Lr5 Lr5 1_0_0_0 7_0_0_2 5.4550 V 1
Lr6 Lr10 1_0_0_0 1_0_0_0 12.6990 V 6
Lr8 Lr11 1_0_0_0 2_1_1_0 6.3490 V 6
Lr10 Lr12 1_0_0_0 2_1_1_0 3.9190 V 4
#End of data_56-TOPOS_DFO-PPT1

data_57-TOPOS_DFT-PPT1
_audit_creation_date                2025-02-23
_audit_creation_method              ToposPro
_chemical_formula_structural        DFT-PPT1
_chemical_formula_sum               'Lr3 O8 Si4'
_citation_special_details
;
Space Group: P42/MMC->P 42/m m c. File: DFT-PPT1.cif. 
;
_cell_length_a                      7.075
_cell_length_b                      7.075
_cell_length_c                      9.023
_cell_angle_alpha                   90
_cell_angle_beta                    90
_cell_angle_gamma                   90
_cell_volume                        451.6519
_cell_formula_units_Z               2
_symmetry_space_group_name_H-M      'P 42/m m c'
_symmetry_Int_Tables_number         131
_refine_ls_R_factor_all             0
loop_
_symmetry_equiv_pos_site_id
_symmetry_equiv_pos_as_xyz
1 x,y,z
2 -x,-y,z
3 x,-y,-z
4 -x,y,-z
5 -y,-x,1/2-z
6 y,x,1/2-z
7 y,-x,1/2+z
8 -y,x,1/2+z
9 -x,-y,-z
10 x,y,-z
11 -x,y,z
12 x,-y,z
13 y,x,1/2+z
14 -y,-x,1/2+z
15 -y,x,1/2-z
16 y,-x,1/2-z
loop_
_atom_site_label
_atom_site_type_symbol
_atom_site_symmetry_multiplicity
_atom_site_fract_x
_atom_site_fract_y
_atom_site_fract_z
_atom_site_occupancy
O1 O 8 0.68570 0.31430 0.25000 1.0000
O2 O 4 0.72580 0.50000 0.00000 1.0000
O3 O 4 0.00000 0.50000 0.19760 1.0000
Si1 Si 8 0.77490 0.50000 0.17400 1.0000
Lr1 Lr 2 0.00000 0.00000 0.00000 1.0000
Lr2 Lr 2 0.50000 0.50000 0.00000 1.0000
Lr3 Lr 2 0.50000 0.00000 0.00000 1.0000
loop_
_topos_bond_atom_site_label_1
_topos_bond_atom_site_label_2
_topos_bond_site_symmetry_1
_topos_bond_site_symmetry_2
_topos_bond_distance
_topos_bond_type
_topos_bond_multiplicity
O1 Si1 1_0_0_0 5_1_1_0 1.6110 V 16
O2 Si1 1_0_0_0 1_0_0_0 1.6080 V 8
O3 Si1 1_0_0_0 1_-1_0_0 1.6070 V 8
Lr1 Lr3 1_0_0_0 1_0_0_0 3.5380 V 4
Lr1 Lr1 1_0_0_0 5_0_0_-1 4.5110 V 2
#End of data_57-TOPOS_DFT-PPT1

data_58-TOPOS_DOH-PPT1
_audit_creation_date                2025-02-23
_audit_creation_method              ToposPro
_chemical_formula_structural        DOH-PPT1
_chemical_formula_sum               'Lr3 O34 Si17'
_citation_special_details
;
Space Group: P6/MMM->P 6/m m m. File: DOH-PPT1.cif. 
;
_cell_length_a                      14.19
_cell_length_b                      14.19
_cell_length_c                      11.499
_cell_angle_alpha                   90
_cell_angle_beta                    90
_cell_angle_gamma                   120
_cell_volume                        2005.19
_cell_formula_units_Z               2
_symmetry_space_group_name_H-M      'P 6/m m m'
_symmetry_Int_Tables_number         191
_refine_ls_R_factor_all             0
loop_
_symmetry_equiv_pos_site_id
_symmetry_equiv_pos_as_xyz
1 x,y,z
2 -x,-y,z
3 -y,x-y,z
4 -x+y,-x,z
5 x-y,x,z
6 y,-x+y,z
7 x-y,-y,-z
8 -x,-x+y,-z
9 y,x,-z
10 -y,-x,-z
11 x,x-y,-z
12 -x+y,y,-z
13 -x,-y,-z
14 x,y,-z
15 y,-x+y,-z
16 x-y,x,-z
17 -x+y,-x,-z
18 -y,x-y,-z
19 -x+y,y,z
20 x,x-y,z
21 -y,-x,z
22 y,x,z
23 -x,-x+y,z
24 x-y,-y,z
loop_
_atom_site_label
_atom_site_type_symbol
_atom_site_symmetry_multiplicity
_atom_site_fract_x
_atom_site_fract_y
_atom_site_fract_z
_atom_site_occupancy
O1 O 24 0.39520 0.28930 0.30350 1.0000
O2 O 12 0.33720 0.16860 0.11400 1.0000
O3 O 12 0.54270 0.27135 0.18490 1.0000
O4 O 6 0.36590 0.00000 0.50000 1.0000
O5 O 6 0.50000 0.00000 0.34140 1.0000
O6 O 6 0.18540 0.00000 0.00000 1.0000
O7 O 2 0.33333 0.66667 0.00000 1.0000
Si1 Si 12 0.41730 0.20865 0.22460 1.0000
Si2 Si 12 0.38810 0.00000 0.36290 1.0000
Si3 Si 6 0.26090 0.13045 0.00000 1.0000
Si4 Si 4 0.33333 0.66667 0.13980 1.0000
Lr1 Lr 2 0.33333 0.66667 0.50000 1.0000
Lr2 Lr 3 0.50000 0.00000 0.00000 1.0000
Lr3 Lr 1 0.00000 0.00000 0.50000 1.0000
loop_
_topos_bond_atom_site_label_1
_topos_bond_atom_site_label_2
_topos_bond_site_symmetry_1
_topos_bond_site_symmetry_2
_topos_bond_distance
_topos_bond_type
_topos_bond_multiplicity
O1 Si1 1_0_0_0 1_0_0_0 1.6090 V 24
O1 Si2 1_0_0_0 5_0_0_0 1.6070 V 24
O2 Si1 1_0_0_0 1_0_0_0 1.6080 V 12
O2 Si3 1_0_0_0 1_0_0_0 1.6120 V 12
O3 Si1 1_0_0_0 1_0_0_0 1.6070 V 12
O3 Si4 1_0_0_0 2_1_1_0 1.6090 V 12
O4 Si2 1_0_0_0 1_0_0_0 1.6080 V 12
O5 Si2 1_0_0_0 1_0_0_0 1.6070 V 12
O6 Si3 1_0_0_0 1_0_0_0 1.6100 V 12
O7 Si4 1_0_0_0 1_0_0_0 1.6080 V 4
#End of data_58-TOPOS_DOH-PPT1

data_59-TOPOS_DON-PPT1
_audit_creation_date                2025-02-23
_audit_creation_method              ToposPro
_chemical_formula_structural        DON-PPT1
_chemical_formula_sum               'Lr5 O16 Si8'
_citation_special_details
;
Space Group: CMCM->C m c m. File: DON-PPT1.cif. 
;
_cell_length_a                      18.89
_cell_length_b                      23.365
_cell_length_c                      8.469
_cell_angle_alpha                   90
_cell_angle_beta                    90
_cell_angle_gamma                   90
_cell_volume                        3737.919
_cell_formula_units_Z               8
_symmetry_space_group_name_H-M      'C m c m'
_symmetry_Int_Tables_number         63
_refine_ls_R_factor_all             0
loop_
_symmetry_equiv_pos_site_id
_symmetry_equiv_pos_as_xyz
1 x,y,z
2 -x,-y,1/2+z
3 x,-y,-z
4 -x,y,1/2-z
5 -x,-y,-z
6 x,y,1/2-z
7 -x,y,z
8 x,-y,1/2+z
9 1/2+x,1/2+y,z
10 1/2-x,1/2-y,1/2+z
11 1/2+x,1/2-y,-z
12 1/2-x,1/2+y,1/2-z
13 1/2-x,1/2-y,-z
14 1/2+x,1/2+y,1/2-z
15 1/2-x,1/2+y,z
16 1/2+x,1/2-y,1/2+z
loop_
_atom_site_label
_atom_site_type_symbol
_atom_site_symmetry_multiplicity
_atom_site_fract_x
_atom_site_fract_y
_atom_site_fract_z
_atom_site_occupancy
O1 O 16 0.56960 0.22170 0.54100 1.0000
O2 O 16 0.06950 0.09260 0.48150 1.0000
O3 O 16 0.20700 0.10130 0.52190 1.0000
O4 O 16 0.82270 0.78870 0.47610 1.0000
O5 O 16 0.80700 0.67690 0.46390 1.0000
O6 O 8 0.50000 0.31330 0.45060 1.0000
O7 O 4 0.50000 0.28290 0.75000 1.0000
O8 O 8 0.14790 0.00000 0.50000 1.0000
O9 O 8 0.15650 0.06630 0.25000 1.0000
O10 O 8 0.88400 0.72970 0.25000 1.0000
O11 O 8 0.75550 0.66690 0.75000 1.0000
O12 O 4 0.00000 0.89940 0.25000 1.0000
Si1 Si 16 0.86080 0.72910 0.43280 1.0000
Si2 Si 16 0.73650 0.66400 0.56500 1.0000
Si3 Si 16 0.14510 0.06500 0.43810 1.0000
Si4 Si 8 0.50000 0.25990 0.57070 1.0000
Si5 Si 8 0.00000 0.88200 0.43380 1.0000
Lr1 Lr 8 0.89584 0.82840 0.25000 1.0000
Lr2 Lr 8 0.66359 0.70330 0.25000 1.0000
Lr3 Lr 8 0.63168 0.57050 0.75000 1.0000
Lr4 Lr 4 0.00000 0.50000 0.25000 1.0000
Lr5 Lr 4 0.00000 0.77503 0.25000 1.0000
Lr6 Lr 4 0.00000 0.00000 0.25000 1.0000
Lr7 Lr 4 0.00000 0.12202 0.25000 1.0000
loop_
_topos_bond_atom_site_label_1
_topos_bond_atom_site_label_2
_topos_bond_site_symmetry_1
_topos_bond_site_symmetry_2
_topos_bond_distance
_topos_bond_type
_topos_bond_multiplicity
O1 Si4 1_0_0_0 1_0_0_0 1.6090 V 16
O1 Si1 1_0_0_0 15_1_-1_0 1.6120 V 16
O2 Si3 1_0_0_0 1_0_0_0 1.6090 V 16
O2 Si5 1_0_0_0 3_0_1_1 1.6090 V 16
O3 Si3 1_0_0_0 1_0_0_0 1.6090 V 16
O3 Si2 1_0_0_0 9_-1_-1_0 1.6090 V 16
O4 Si1 1_0_0_0 1_0_0_0 1.6100 V 16
O4 Si2 1_0_0_0 13_1_1_1 1.6100 V 16
O5 Si1 1_0_0_0 1_0_0_0 1.6090 V 16
O5 Si2 1_0_0_0 1_0_0_0 1.6120 V 16
O6 Si4 1_0_0_0 1_0_0_0 1.6100 V 8
O6 Si5 1_0_0_0 9_0_-1_0 1.6110 V 8
O7 Si4 1_0_0_0 1_0_0_0 1.6110 V 8
O8 Si3 1_0_0_0 1_0_0_0 1.6080 V 16
O9 Si3 1_0_0_0 1_0_0_0 1.6080 V 16
O10 Si1 1_0_0_0 1_0_0_0 1.6090 V 16
O11 Si2 1_0_0_0 1_0_0_0 1.6090 V 16
O12 Si5 1_0_0_0 1_0_0_0 1.6090 V 8
Lr1 Lr5 1_0_0_0 1_1_0_0 2.3290 V 8
Lr1 Lr3 1_0_0_0 10_1_1_-1 2.4190 V 8
Lr3 Lr6 1_0_0_0 10_0_0_0 2.9830 V 8
Lr4 Lr4 1_0_0_0 2_0_1_0 4.2350 V 4
Lr6 Lr7 1_0_0_0 1_0_0_0 2.8510 V 4
#End of data_59-TOPOS_DON-PPT1

data_60-TOPOS_EAB-PPT1
_audit_creation_date                2025-02-23
_audit_creation_method              ToposPro
_chemical_formula_structural        EAB-PPT1
_chemical_formula_sum               'Lr1 O12 Si6'
_citation_special_details
;
Space Group: P63/MMC->P 63/m m c. File: EAB-PPT1.cif. 
;
_cell_length_a                      13.178
_cell_length_b                      13.178
_cell_length_c                      15.005
_cell_angle_alpha                   90
_cell_angle_beta                    90
_cell_angle_gamma                   120
_cell_volume                        2256.658
_cell_formula_units_Z               6
_symmetry_space_group_name_H-M      'P 63/m m c'
_symmetry_Int_Tables_number         194
_refine_ls_R_factor_all             0
loop_
_symmetry_equiv_pos_site_id
_symmetry_equiv_pos_as_xyz
1 x,y,z
2 -x,-y,1/2+z
3 -y,x-y,z
4 -x+y,-x,z
5 x-y,x,1/2+z
6 y,-x+y,1/2+z
7 x-y,-y,-z
8 -x,-x+y,-z
9 y,x,-z
10 -y,-x,1/2-z
11 x,x-y,1/2-z
12 -x+y,y,1/2-z
13 -x,-y,-z
14 x,y,1/2-z
15 y,-x+y,-z
16 x-y,x,-z
17 -x+y,-x,1/2-z
18 -y,x-y,1/2-z
19 -x+y,y,z
20 x,x-y,z
21 -y,-x,z
22 y,x,1/2+z
23 -x,-x+y,1/2+z
24 x-y,-y,1/2+z
loop_
_atom_site_label
_atom_site_type_symbol
_atom_site_symmetry_multiplicity
_atom_site_fract_x
_atom_site_fract_y
_atom_site_fract_z
_atom_site_occupancy
O1 O 24 0.32170 0.02380 0.08570 1.0000
O2 O 12 0.47540 0.23770 0.13620 1.0000
O3 O 12 0.40140 0.06330 0.25000 1.0000
O4 O 12 0.53970 0.07940 0.11790 1.0000
O5 O 12 0.11250 0.88750 0.01850 1.0000
Si1 Si 24 0.43450 0.10100 0.14740 1.0000
Si2 Si 12 0.23930 0.00000 0.00000 1.0000
Lr1 Lr 2 0.66667 0.33333 0.25000 1.0000
Lr2 Lr 2 0.33333 0.66667 0.25000 1.0000
Lr3 Lr 2 0.00000 0.00000 0.25000 1.0000
loop_
_topos_bond_atom_site_label_1
_topos_bond_atom_site_label_2
_topos_bond_site_symmetry_1
_topos_bond_site_symmetry_2
_topos_bond_distance
_topos_bond_type
_topos_bond_multiplicity
O1 Si1 1_0_0_0 1_0_0_0 1.6090 V 24
O1 Si2 1_0_0_0 1_0_0_0 1.6100 V 24
O2 Si1 1_0_0_0 1_0_0_0 1.6100 V 24
O3 Si1 1_0_0_0 1_0_0_0 1.6090 V 24
O4 Si1 1_0_0_0 1_0_0_0 1.6100 V 24
O5 Si2 1_0_0_0 15_0_1_0 1.6090 V 24
Lr2 Lr3 1_0_0_0 1_0_0_0 7.6080 V 6
#End of data_60-TOPOS_EAB-PPT1

data_61-TOPOS_EDI-PPT1
_audit_creation_date                2025-02-23
_audit_creation_method              ToposPro
_chemical_formula_structural        EDI-PPT1
_chemical_formula_sum               'Lr1 O2 Si1'
_citation_special_details
;
Space Group: P-4M2->P -4 m 2. File: EDI-PPT1.cif. 
;
_cell_length_a                      6.926
_cell_length_b                      6.926
_cell_length_c                      6.41
_cell_angle_alpha                   90
_cell_angle_beta                    90
_cell_angle_gamma                   90
_cell_volume                        307.4843
_cell_formula_units_Z               5
_symmetry_space_group_name_H-M      'P -4 m 2'
_symmetry_Int_Tables_number         115
_refine_ls_R_factor_all             0
loop_
_symmetry_equiv_pos_site_id
_symmetry_equiv_pos_as_xyz
1 x,y,z
2 -x,-y,z
3 -y,-x,-z
4 y,x,-z
5 -x,y,z
6 x,-y,z
7 -y,x,-z
8 y,-x,-z
loop_
_atom_site_label
_atom_site_type_symbol
_atom_site_symmetry_multiplicity
_atom_site_fract_x
_atom_site_fract_y
_atom_site_fract_z
_atom_site_occupancy
O1 O 4 0.18980 0.00000 0.35500 1.0000
O2 O 4 0.18970 0.18970 0.00000 1.0000
O3 O 2 0.50000 0.00000 0.11830 1.0000
Si1 Si 4 0.26790 0.00000 0.11840 1.0000
Si2 Si 1 0.00000 0.00000 0.50000 1.0000
Lr1 Lr 2 0.50000 0.00000 0.70000 1.0000
Lr2 Lr 2 0.00000 0.00000 0.10000 1.0000
Lr3 Lr 1 0.50000 0.50000 0.50000 1.0000
loop_
_topos_bond_atom_site_label_1
_topos_bond_atom_site_label_2
_topos_bond_site_symmetry_1
_topos_bond_site_symmetry_2
_topos_bond_distance
_topos_bond_type
_topos_bond_multiplicity
O1 Si2 1_0_0_0 1_0_0_0 1.6100 V 4
O1 Si1 1_0_0_0 1_0_0_0 1.6100 V 4
O2 Si1 1_0_0_0 1_0_0_0 1.6110 V 8
O3 Si1 1_0_0_0 1_0_0_0 1.6080 V 4
Lr1 Lr3 1_0_0_0 1_0_-1_0 3.6930 V 4
Lr2 Lr2 1_0_0_0 3_0_0_0 1.2820 V 1
Lr3 Lr3 1_0_0_0 1_0_0_-1 6.4100 V 1
#End of data_61-TOPOS_EDI-PPT1

data_62-TOPOS_EEI-PPT1
_audit_creation_date                2025-02-23
_audit_creation_method              ToposPro
_chemical_formula_structural        EEI-PPT1
_chemical_formula_sum               'Lr8 O50 Si25'
_citation_special_details
;
Space Group: FMMM->F m m m. File: EEI-PPT1.cif. 
;
_cell_length_a                      13.8761
_cell_length_b                      35.745
_cell_length_c                      22.4869
_cell_angle_alpha                   90
_cell_angle_beta                    90
_cell_angle_gamma                   90
_cell_volume                        11153.53
_cell_formula_units_Z               8
_symmetry_space_group_name_H-M      'F m m m'
_symmetry_Int_Tables_number         69
_refine_ls_R_factor_all             0
loop_
_symmetry_equiv_pos_site_id
_symmetry_equiv_pos_as_xyz
1 x,y,z
2 -x,-y,z
3 x,-y,-z
4 -x,y,-z
5 -x,-y,-z
6 x,y,-z
7 -x,y,z
8 x,-y,z
9 x,1/2+y,1/2+z
10 1/2+x,y,1/2+z
11 1/2+x,1/2+y,z
12 -x,1/2-y,1/2+z
13 1/2-x,-y,1/2+z
14 1/2-x,1/2-y,z
15 x,1/2-y,1/2-z
16 1/2+x,-y,1/2-z
17 1/2+x,1/2-y,-z
18 -x,1/2+y,1/2-z
19 1/2-x,y,1/2-z
20 1/2-x,1/2+y,-z
21 -x,1/2-y,1/2-z
22 1/2-x,-y,1/2-z
23 1/2-x,1/2-y,-z
24 x,1/2+y,1/2-z
25 1/2+x,y,1/2-z
26 1/2+x,1/2+y,-z
27 -x,1/2+y,1/2+z
28 1/2-x,y,1/2+z
29 1/2-x,1/2+y,z
30 x,1/2-y,1/2+z
31 1/2+x,-y,1/2+z
32 1/2+x,1/2-y,z
loop_
_atom_site_label
_atom_site_type_symbol
_atom_site_symmetry_multiplicity
_atom_site_fract_x
_atom_site_fract_y
_atom_site_fract_z
_atom_site_occupancy
O1 O 32 0.26170 0.11100 0.35960 1.0000
O2 O 32 0.16850 0.07170 0.44210 1.0000
O3 O 32 0.24930 0.03690 0.35100 1.0000
O4 O 32 0.09570 0.07950 0.33830 1.0000
O5 O 32 0.25700 0.18400 0.16210 1.0000
O6 O 32 0.09620 0.15260 0.18320 1.0000
O7 O 32 0.16190 0.19230 0.44140 1.0000
O8 O 32 0.09330 0.22710 0.34510 1.0000
O9 O 16 0.11440 0.13120 0.50000 1.0000
O10 O 16 0.09570 0.00000 0.18150 1.0000
O11 O 16 0.00000 0.10770 0.24850 1.0000
O12 O 16 0.00000 0.03620 0.26430 1.0000
O13 O 16 0.00000 0.17870 0.27750 1.0000
O14 O 16 0.25000 0.13610 0.25000 1.0000
O15 O 16 0.25000 0.25000 0.39500 1.0000
O16 O 8 0.00000 0.18990 0.50000 1.0000
O17 O 8 0.00000 0.42720 0.00000 1.0000
O18 O 8 0.25000 0.00000 0.25000 1.0000
O19 O 8 0.00000 0.25000 0.25000 1.0000
Si1 Si 32 0.19660 0.07460 0.37270 1.0000
Si2 Si 32 0.21070 0.14510 0.18420 1.0000
Si3 Si 32 0.18780 0.21320 0.38020 1.0000
Si4 Si 16 0.11040 0.17610 0.50000 1.0000
Si5 Si 16 0.21190 0.00000 0.18250 1.0000
Si6 Si 16 0.00000 0.07560 0.29870 1.0000
Si7 Si 16 0.00000 0.14970 0.22290 1.0000
Si8 Si 16 0.00000 0.22050 0.30390 1.0000
Si9 Si 16 0.11090 0.41390 0.00000 1.0000
Si10 Si 8 0.00000 0.00000 0.22190 1.0000
Lr1 Lr 32 0.16667 0.07386 0.24928 1.0000
Lr2 Lr 16 0.00000 0.14175 0.35542 1.0000
Lr3 Lr 4 0.00000 0.00000 0.50000 1.0000
Lr4 Lr 4 0.50000 0.00000 0.50000 1.0000
Lr5 Lr 8 0.25000 0.25000 0.25000 1.0000
loop_
_topos_bond_atom_site_label_1
_topos_bond_atom_site_label_2
_topos_bond_site_symmetry_1
_topos_bond_site_symmetry_2
_topos_bond_distance
_topos_bond_type
_topos_bond_multiplicity
O1 Si1 1_0_0_0 1_0_0_0 1.6110 V 32
O1 Si2 1_0_0_0 19_0_0_0 1.6130 V 32
O2 Si1 1_0_0_0 1_0_0_0 1.6120 V 32
O2 Si9 1_0_0_0 15_0_0_0 1.6120 V 32
O3 Si1 1_0_0_0 1_0_0_0 1.6090 V 32
O3 Si5 1_0_0_0 19_0_0_0 1.6120 V 32
O4 Si6 1_0_0_0 1_0_0_0 1.6050 V 32
O4 Si1 1_0_0_0 1_0_0_0 1.6090 V 32
O5 Si2 1_0_0_0 1_0_0_0 1.6100 V 32
O5 Si3 1_0_0_0 19_0_0_0 1.6070 V 32
O6 Si7 1_0_0_0 1_0_0_0 1.6090 V 32
O6 Si2 1_0_0_0 1_0_0_0 1.6110 V 32
O7 Si3 1_0_0_0 1_0_0_0 1.6070 V 32
O7 Si4 1_0_0_0 1_0_0_0 1.6070 V 32
O8 Si3 1_0_0_0 1_0_0_0 1.6090 V 32
O8 Si8 1_0_0_0 1_0_0_0 1.6090 V 32
O9 Si4 1_0_0_0 1_0_0_0 1.6060 V 16
O9 Si9 1_0_0_0 15_0_0_0 1.6130 V 16
O10 Si10 1_0_0_0 1_0_0_0 1.6090 V 16
O10 Si5 1_0_0_0 1_0_0_0 1.6130 V 16
O11 Si7 1_0_0_0 1_0_0_0 1.6080 V 16
O11 Si6 1_0_0_0 1_0_0_0 1.6100 V 16
O12 Si6 1_0_0_0 1_0_0_0 1.6070 V 16
O12 Si10 1_0_0_0 1_0_0_0 1.6070 V 16
O13 Si7 1_0_0_0 1_0_0_0 1.6070 V 16
O13 Si8 1_0_0_0 1_0_0_0 1.6080 V 16
O14 Si2 1_0_0_0 1_0_0_0 1.6090 V 32
O15 Si3 1_0_0_0 1_0_0_0 1.6080 V 32
O16 Si4 1_0_0_0 1_0_0_0 1.6090 V 16
O17 Si9 1_0_0_0 1_0_0_0 1.6110 V 16
O18 Si5 1_0_0_0 1_0_0_0 1.6070 V 16
O19 Si8 1_0_0_0 1_0_0_0 1.6070 V 16
Lr1 Lr1 1_0_0_0 19_0_0_0 2.3130 V 16
Lr3 Lr4 1_0_0_0 1_0_0_0 6.9380 V 8
#End of data_62-TOPOS_EEI-PPT1

data_63-TOPOS_EMT-PPT1
_audit_creation_date                2025-02-23
_audit_creation_method              ToposPro
_chemical_formula_structural        EMT-PPT1
_chemical_formula_sum               'Lr1 O12 Si6'
_citation_special_details
;
Space Group: P63/MMC->P 63/m m c. File: EMT-PPT1.cif. 
;
_cell_length_a                      17.215
_cell_length_b                      17.215
_cell_length_c                      28.082
_cell_angle_alpha                   90
_cell_angle_beta                    90
_cell_angle_gamma                   120
_cell_volume                        7207.302
_cell_formula_units_Z               16
_symmetry_space_group_name_H-M      'P 63/m m c'
_symmetry_Int_Tables_number         194
_refine_ls_R_factor_all             0
loop_
_symmetry_equiv_pos_site_id
_symmetry_equiv_pos_as_xyz
1 x,y,z
2 -x,-y,1/2+z
3 -y,x-y,z
4 -x+y,-x,z
5 x-y,x,1/2+z
6 y,-x+y,1/2+z
7 x-y,-y,-z
8 -x,-x+y,-z
9 y,x,-z
10 -y,-x,1/2-z
11 x,x-y,1/2-z
12 -x+y,y,1/2-z
13 -x,-y,-z
14 x,y,1/2-z
15 y,-x+y,-z
16 x-y,x,-z
17 -x+y,-x,1/2-z
18 -y,x-y,1/2-z
19 -x+y,y,z
20 x,x-y,z
21 -y,-x,z
22 y,x,1/2+z
23 -x,-x+y,1/2+z
24 x-y,-y,1/2+z
loop_
_atom_site_label
_atom_site_type_symbol
_atom_site_symmetry_multiplicity
_atom_site_fract_x
_atom_site_fract_y
_atom_site_fract_z
_atom_site_occupancy
O1 O 24 0.07060 0.43100 0.16110 1.0000
O2 O 24 0.93030 0.36100 0.10440 1.0000
O3 O 24 0.08820 0.39780 0.07160 1.0000
O4 O 24 0.13000 0.45600 0.98360 1.0000
O5 O 12 0.05740 0.52870 0.09310 1.0000
O6 O 12 0.18610 0.59305 0.92510 1.0000
O7 O 12 0.18680 0.59340 0.19050 1.0000
O8 O 12 0.00000 0.29140 0.00000 1.0000
O9 O 12 0.16780 0.33560 0.01620 1.0000
O10 O 12 0.23680 0.47360 0.91240 1.0000
O11 O 12 0.23615 0.47230 0.18100 1.0000
O12 O 12 0.12640 0.45760 0.25000 1.0000
Si1 Si 24 0.03660 0.42960 0.10750 1.0000
Si2 Si 24 0.09640 0.37010 0.01790 1.0000
Si3 Si 24 0.15560 0.48840 0.92920 1.0000
Si4 Si 24 0.15500 0.48850 0.19570 1.0000
Lr1 Lr 6 0.00000 0.50000 0.00000 1.0000
Lr2 Lr 2 0.66667 0.33333 0.25000 1.0000
Lr3 Lr 4 0.33333 0.66667 0.06257 1.0000
Lr4 Lr 2 0.00000 0.00000 0.25000 1.0000
Lr5 Lr 2 0.33333 0.66667 0.25000 1.0000
loop_
_topos_bond_atom_site_label_1
_topos_bond_atom_site_label_2
_topos_bond_site_symmetry_1
_topos_bond_site_symmetry_2
_topos_bond_distance
_topos_bond_type
_topos_bond_multiplicity
O1 Si1 1_0_0_0 1_0_0_0 1.6110 V 24
O1 Si4 1_0_0_0 1_0_0_0 1.6110 V 24
O2 Si1 1_0_0_0 1_1_0_0 1.6090 V 24
O2 Si3 1_0_0_0 8_1_0_1 1.6110 V 24
O3 Si2 1_0_0_0 1_0_0_0 1.6090 V 24
O3 Si1 1_0_0_0 1_0_0_0 1.6100 V 24
O4 Si3 1_0_0_0 1_0_0_0 1.6100 V 24
O4 Si2 1_0_0_0 1_0_0_1 1.6110 V 24
O5 Si1 1_0_0_0 1_0_0_0 1.6100 V 24
O6 Si3 1_0_0_0 1_0_0_0 1.6090 V 24
O7 Si4 1_0_0_0 1_0_0_0 1.6100 V 24
O8 Si2 1_0_0_0 1_0_0_0 1.6110 V 24
O9 Si2 1_0_0_0 1_0_0_0 1.6110 V 24
O10 Si3 1_0_0_0 1_0_0_0 1.6120 V 24
O11 Si4 1_0_0_0 1_0_0_0 1.6090 V 24
O12 Si4 1_0_0_0 1_0_0_0 1.6090 V 24
Lr2 Lr4 1_0_0_0 1_0_0_0 9.9390 V 6
Lr4 Lr4 1_0_0_0 2_0_0_0 14.0410 V 2
#End of data_63-TOPOS_EMT-PPT1

data_64-TOPOS_EON-PPT1
_audit_creation_date                2025-02-23
_audit_creation_method              ToposPro
_chemical_formula_structural        EON-PPT1
_chemical_formula_sum               'Lr1 O6 Si3'
_citation_special_details
;
Space Group: PMMN->P m m n. File: EON-PPT1.cif. 
;
_cell_length_a                      7.571
_cell_length_b                      18.148
_cell_length_c                      25.932
_cell_angle_alpha                   90
_cell_angle_beta                    90
_cell_angle_gamma                   90
_cell_volume                        3563.018
_cell_formula_units_Z               20
_symmetry_space_group_name_H-M      'P m m n'
_symmetry_Int_Tables_number         59
_refine_ls_R_factor_all             0
loop_
_symmetry_equiv_pos_site_id
_symmetry_equiv_pos_as_xyz
1 x,y,z
2 -x,-y,z
3 1/2+x,1/2-y,-z
4 1/2-x,1/2+y,-z
5 1/2-x,1/2-y,-z
6 1/2+x,1/2+y,-z
7 -x,y,z
8 x,-y,z
loop_
_atom_site_label
_atom_site_type_symbol
_atom_site_symmetry_multiplicity
_atom_site_fract_x
_atom_site_fract_y
_atom_site_fract_z
_atom_site_occupancy
O1 O 8 0.32670 0.89950 0.96140 1.0000
O2 O 8 0.32670 0.77880 0.11060 1.0000
O3 O 8 0.32590 0.87750 0.22990 1.0000
O4 O 8 0.75250 0.85950 0.86660 1.0000
O5 O 8 0.77170 0.74350 0.20480 1.0000
O6 O 8 0.73560 0.78020 0.30240 1.0000
O7 O 8 0.82610 0.87550 0.37380 1.0000
O8 O 8 0.82640 0.87600 0.54420 1.0000
O9 O 8 0.75950 0.73790 0.39880 1.0000
O10 O 4 0.50000 0.86120 0.04460 1.0000
O11 O 4 0.50000 0.89570 0.14320 1.0000
O12 O 4 0.50000 0.82540 0.37010 1.0000
O13 O 2 0.50000 0.00000 0.01450 1.0000
O14 O 2 0.50000 0.00000 0.21420 1.0000
O15 O 4 0.00000 0.90700 0.92910 1.0000
O16 O 4 0.00000 0.73930 0.12860 1.0000
O17 O 4 0.00000 0.83360 0.24810 1.0000
O18 O 4 0.00000 0.90640 0.45880 1.0000
O19 O 4 0.00000 0.67210 0.45560 1.0000
O20 O 4 0.76420 0.00000 0.89340 1.0000
O21 O 2 0.00000 0.00000 0.38110 1.0000
O22 O 2 0.00000 0.00000 0.53660 1.0000
O23 O 4 0.75000 0.75000 0.50000 1.0000
Si1 Si 8 0.79660 0.91660 0.91230 1.0000
Si2 Si 8 0.79710 0.72540 0.14450 1.0000
Si3 Si 8 0.79600 0.80870 0.24630 1.0000
Si4 Si 8 0.70470 0.80490 0.36140 1.0000
Si5 Si 8 0.79590 0.69650 0.45250 1.0000
Si6 Si 4 0.50000 0.91550 0.99560 1.0000
Si7 Si 4 0.50000 0.82880 0.10240 1.0000
Si8 Si 4 0.50000 0.91260 0.20410 1.0000
Si9 Si 4 0.00000 0.91430 0.39700 1.0000
Si10 Si 4 0.00000 0.91440 0.52050 1.0000
Lr1 Lr 2 0.50000 0.00000 0.71820 1.0000
Lr2 Lr 2 0.50000 0.00000 0.45794 1.0000
Lr3 Lr 2 0.50000 0.00000 0.31621 1.0000
Lr4 Lr 4 0.00000 0.76745 0.00700 1.0000
Lr5 Lr 4 0.00000 0.80481 0.45504 1.0000
Lr6 Lr 2 0.00000 0.00000 0.74071 1.0000
Lr7 Lr 2 0.00000 0.00000 0.10087 1.0000
Lr8 Lr 2 0.00000 0.00000 0.28866 1.0000
loop_
_topos_bond_atom_site_label_1
_topos_bond_atom_site_label_2
_topos_bond_site_symmetry_1
_topos_bond_site_symmetry_2
_topos_bond_distance
_topos_bond_type
_topos_bond_multiplicity
O1 Si6 1_0_0_0 1_0_0_0 1.6100 V 8
O1 Si1 1_0_0_0 7_1_0_0 1.6090 V 8
O2 Si7 1_0_0_0 1_0_0_0 1.6090 V 8
O2 Si2 1_0_0_0 7_1_0_0 1.6090 V 8
O3 Si8 1_0_0_0 1_0_0_0 1.6100 V 8
O3 Si3 1_0_0_0 7_1_0_0 1.6100 V 8
O4 Si1 1_0_0_0 1_0_0_0 1.6090 V 8
O4 Si2 1_0_0_0 5_1_1_1 1.6120 V 8
O5 Si2 1_0_0_0 1_0_0_0 1.6090 V 8
O5 Si3 1_0_0_0 1_0_0_0 1.6100 V 8
O6 Si3 1_0_0_0 1_0_0_0 1.6100 V 8
O6 Si4 1_0_0_0 1_0_0_0 1.6110 V 8
O7 Si4 1_0_0_0 1_0_0_0 1.6090 V 8
O7 Si9 1_0_0_0 1_1_0_0 1.6100 V 8
O8 Si10 1_0_0_0 1_1_0_0 1.6100 V 8
O8 Si5 1_0_0_0 5_1_1_1 1.6110 V 8
O9 Si5 1_0_0_0 1_0_0_0 1.6060 V 8
O9 Si4 1_0_0_0 1_0_0_0 1.6100 V 8
O10 Si7 1_0_0_0 1_0_0_0 1.6100 V 4
O10 Si6 1_0_0_0 1_0_0_-1 1.6080 V 4
O11 Si8 1_0_0_0 1_0_0_0 1.6090 V 4
O11 Si7 1_0_0_0 1_0_0_0 1.6100 V 4
O12 Si4 1_0_0_0 1_0_0_0 1.6100 V 8
O13 Si6 1_0_0_0 1_0_-1_-1 1.6100 V 4
O14 Si8 1_0_0_0 1_0_-1_0 1.6080 V 4
O15 Si1 1_0_0_0 1_-1_0_0 1.6100 V 8
O16 Si2 1_0_0_0 1_-1_0_0 1.6100 V 8
O17 Si3 1_0_0_0 1_-1_0_0 1.6100 V 8
O18 Si10 1_0_0_0 1_0_0_0 1.6070 V 4
O18 Si9 1_0_0_0 1_0_0_0 1.6090 V 4
O19 Si5 1_0_0_0 1_-1_0_0 1.6090 V 8
O20 Si1 1_0_0_0 1_0_-1_0 1.6100 V 8
O21 Si9 1_0_0_0 1_0_-1_0 1.6090 V 4
O22 Si10 1_0_0_0 1_0_-1_0 1.6090 V 4
O23 Si5 1_0_0_0 1_0_0_0 1.6060 V 8
Lr1 Lr6 1_0_0_0 1_0_0_0 3.8300 V 4
Lr1 Lr2 1_0_0_0 1_0_0_0 6.7490 V 2
Lr2 Lr3 1_0_0_0 1_0_0_0 3.6750 V 2
Lr3 Lr8 1_0_0_0 1_0_0_0 3.8520 V 4
Lr4 Lr7 1_0_0_0 1_0_1_0 4.8720 V 4
Lr4 Lr4 1_0_0_0 3_0_1_0 3.8550 V 4
Lr7 Lr8 1_0_0_0 1_0_0_0 4.8700 V 2
#End of data_64-TOPOS_EON-PPT1

data_65-TOPOS_EOS-PPT1
_audit_creation_date                2025-02-23
_audit_creation_method              ToposPro
_chemical_formula_structural        EOS-PPT1
_chemical_formula_sum               'Lr1 O4 Si2'
_citation_special_details
;
Space Group: P2/M->P 2/m. File: EOS-PPT1.cif. 
;
_cell_length_a                      9.0869
_cell_length_b                      7.5548
_cell_length_c                      10.4761
_cell_angle_alpha                   90
_cell_angle_beta                    108.333
_cell_angle_gamma                   90
_cell_volume                        682.6788
_cell_formula_units_Z               6
_symmetry_space_group_name_H-M      'P 2/m'
_symmetry_Int_Tables_number         10
_refine_ls_R_factor_all             0
loop_
_symmetry_equiv_pos_site_id
_symmetry_equiv_pos_as_xyz
1 x,y,z
2 -x,y,-z
3 -x,-y,-z
4 x,-y,z
loop_
_atom_site_label
_atom_site_type_symbol
_atom_site_symmetry_multiplicity
_atom_site_fract_x
_atom_site_fract_y
_atom_site_fract_z
_atom_site_occupancy
O1 O 4 0.26874 0.27903 0.44610 1.0000
O2 O 4 0.49060 0.23469 0.33753 1.0000
O3 O 4 0.20044 0.17400 0.19498 1.0000
O4 O 4 0.22792 0.17387 0.67162 1.0000
O5 O 2 0.97196 0.00000 0.24193 1.0000
O6 O 2 0.29548 0.50000 0.26086 1.0000
O7 O 2 0.31786 0.50000 0.64909 1.0000
O8 O 1 0.00000 0.00000 0.50000 1.0000
O9 O 1 0.00000 0.00000 0.00000 1.0000
Si1 Si 4 0.31382 0.29686 0.30983 1.0000
Si2 Si 4 0.33105 0.29692 0.60738 1.0000
Si3 Si 2 0.87968 0.00000 0.35016 1.0000
Si4 Si 2 0.09307 0.00000 0.15823 1.0000
Lr1 Lr 2 0.06781 0.50000 0.41134 1.0000
Lr2 Lr 1 0.50000 0.50000 0.50000 1.0000
Lr3 Lr 1 0.50000 0.50000 0.00000 1.0000
Lr4 Lr 1 0.50000 0.00000 0.50000 1.0000
Lr5 Lr 1 0.50000 0.00000 0.00000 1.0000
loop_
_topos_bond_atom_site_label_1
_topos_bond_atom_site_label_2
_topos_bond_site_symmetry_1
_topos_bond_site_symmetry_2
_topos_bond_distance
_topos_bond_type
_topos_bond_multiplicity
O1 Si2 1_0_0_0 1_0_0_0 1.6100 V 4
O1 Si1 1_0_0_0 1_0_0_0 1.6100 V 4
O2 Si1 1_0_0_0 1_0_0_0 1.6100 V 4
O2 Si2 1_0_0_0 2_1_0_1 1.6100 V 4
O3 Si1 1_0_0_0 1_0_0_0 1.6100 V 4
O3 Si4 1_0_0_0 1_0_0_0 1.6100 V 4
O4 Si2 1_0_0_0 1_0_0_0 1.6100 V 4
O4 Si3 1_0_0_0 2_1_0_1 1.6100 V 4
O5 Si3 1_0_0_0 1_0_0_0 1.6080 V 2
O5 Si4 1_0_0_0 1_1_0_0 1.6080 V 2
O6 Si1 1_0_0_0 1_0_0_0 1.6100 V 4
O7 Si2 1_0_0_0 1_0_0_0 1.6100 V 4
O8 Si3 1_0_0_0 1_-1_0_0 1.6060 V 2
O9 Si4 1_0_0_0 1_0_0_0 1.6070 V 2
Lr1 Lr3 1_0_0_0 1_-1_0_0 5.5860 V 2
Lr1 Lr1 1_0_0_0 2_0_0_1 2.5320 V 1
Lr3 Lr5 1_0_0_0 1_0_0_0 3.7770 V 2
Lr3 Lr3 1_0_0_0 1_1_0_0 9.0870 V 1
#End of data_65-TOPOS_EOS-PPT1

data_66-TOPOS_EPI-PPT1
_audit_creation_date                2025-02-23
_audit_creation_method              ToposPro
_chemical_formula_structural        EPI-PPT1
_chemical_formula_sum               'Lr1 O8 Si4'
_citation_special_details
;
Space Group: C2/M->C 2/m. File: EPI-PPT1.cif. 
;
_cell_length_a                      9.127
_cell_length_b                      17.48
_cell_length_c                      9.083
_cell_angle_alpha                   90
_cell_angle_beta                    69.4791
_cell_angle_gamma                   90
_cell_volume                        1357.148
_cell_formula_units_Z               6
_symmetry_space_group_name_H-M      'C 2/m'
_symmetry_Int_Tables_number         12
_refine_ls_R_factor_all             0
loop_
_symmetry_equiv_pos_site_id
_symmetry_equiv_pos_as_xyz
1 x,y,z
2 -x,y,-z
3 -x,-y,-z
4 x,-y,z
5 1/2+x,1/2+y,z
6 1/2-x,1/2+y,-z
7 1/2-x,1/2-y,-z
8 1/2+x,1/2-y,z
loop_
_atom_site_label
_atom_site_type_symbol
_atom_site_symmetry_multiplicity
_atom_site_fract_x
_atom_site_fract_y
_atom_site_fract_z
_atom_site_occupancy
O1 O 8 0.30800 0.11410 0.87360 1.0000
O2 O 8 0.13600 0.13760 0.69930 1.0000
O3 O 8 0.98570 0.26920 0.73590 1.0000
O4 O 4 0.15310 0.00000 0.80790 1.0000
O5 O 4 0.00000 0.10910 0.00000 1.0000
O6 O 4 0.25000 0.25000 0.50000 1.0000
O7 O 4 0.00000 0.17770 0.50000 1.0000
O8 O 4 0.50000 0.17490 0.00000 1.0000
O9 O 4 0.25000 0.25000 0.00000 1.0000
Si1 Si 8 0.14920 0.09000 0.84590 1.0000
Si2 Si 8 0.09230 0.20870 0.61010 1.0000
Si3 Si 8 0.38700 0.19250 0.90230 1.0000
Lr1 Lr 4 0.00000 0.19967 0.00000 1.0000
Lr2 Lr 2 0.50000 0.00000 0.50000 1.0000
loop_
_topos_bond_atom_site_label_1
_topos_bond_atom_site_label_2
_topos_bond_site_symmetry_1
_topos_bond_site_symmetry_2
_topos_bond_distance
_topos_bond_type
_topos_bond_multiplicity
O1 Si1 1_0_0_0 1_0_0_0 1.6120 V 8
O1 Si3 1_0_0_0 1_0_0_0 1.6120 V 8
O2 Si2 1_0_0_0 1_0_0_0 1.6080 V 8
O2 Si1 1_0_0_0 1_0_0_0 1.6100 V 8
O3 Si3 1_0_0_0 8_0_0_0 1.6090 V 8
O3 Si2 1_0_0_0 1_1_0_0 1.6100 V 8
O4 Si1 1_0_0_0 1_0_0_0 1.6080 V 8
O5 Si1 1_0_0_0 1_0_0_-1 1.6090 V 8
O6 Si2 1_0_0_0 1_0_0_0 1.6070 V 8
O7 Si2 1_0_0_0 1_0_0_0 1.6110 V 8
O8 Si3 1_0_0_0 1_0_0_-1 1.6090 V 8
O9 Si3 1_0_0_0 1_0_0_-1 1.6070 V 8
Lr2 Lr2 1_0_0_0 1_0_0_1 9.0830 V 2
Lr2 Lr2 1_0_0_0 1_1_0_0 9.1270 V 2
#End of data_66-TOPOS_EPI-PPT1

data_67-TOPOS_ERI-PPT1
_audit_creation_date                2025-02-23
_audit_creation_method              ToposPro
_chemical_formula_structural        ERI-PPT1
_chemical_formula_sum               'Lr1 O12 Si6'
_citation_special_details
;
Space Group: P63/MMC->P 63/m m c. File: ERI-PPT1.cif. 
;
_cell_length_a                      13.054
_cell_length_b                      13.054
_cell_length_c                      15.175
_cell_angle_alpha                   90
_cell_angle_beta                    90
_cell_angle_gamma                   120
_cell_volume                        2239.477
_cell_formula_units_Z               6
_symmetry_space_group_name_H-M      'P 63/m m c'
_symmetry_Int_Tables_number         194
_refine_ls_R_factor_all             0
loop_
_symmetry_equiv_pos_site_id
_symmetry_equiv_pos_as_xyz
1 x,y,z
2 -x,-y,1/2+z
3 -y,x-y,z
4 -x+y,-x,z
5 x-y,x,1/2+z
6 y,-x+y,1/2+z
7 x-y,-y,-z
8 -x,-x+y,-z
9 y,x,-z
10 -y,-x,1/2-z
11 x,x-y,1/2-z
12 -x+y,y,1/2-z
13 -x,-y,-z
14 x,y,1/2-z
15 y,-x+y,-z
16 x-y,x,-z
17 -x+y,-x,1/2-z
18 -y,x-y,1/2-z
19 -x+y,y,z
20 x,x-y,z
21 -y,-x,z
22 y,x,1/2+z
23 -x,-x+y,1/2+z
24 x-y,-y,1/2+z
loop_
_atom_site_label
_atom_site_type_symbol
_atom_site_symmetry_multiplicity
_atom_site_fract_x
_atom_site_fract_y
_atom_site_fract_z
_atom_site_occupancy
O1 O 24 0.03600 0.34740 0.16340 1.0000
O2 O 12 0.87110 0.12890 0.12810 1.0000
O3 O 12 0.09570 0.19140 0.11390 1.0000
O4 O 12 0.00000 0.27050 0.00000 1.0000
O5 O 6 0.23560 0.47120 0.25000 1.0000
O6 O 6 0.07570 0.53785 0.25000 1.0000
Si1 Si 24 0.00060 0.23450 0.10140 1.0000
Si2 Si 12 0.09610 0.42610 0.25000 1.0000
Lr1 Lr 2 0.00000 0.00000 0.00000 1.0000
Lr2 Lr 2 0.33333 0.66667 0.75000 1.0000
Lr3 Lr 2 0.00000 0.00000 0.25000 1.0000
loop_
_topos_bond_atom_site_label_1
_topos_bond_atom_site_label_2
_topos_bond_site_symmetry_1
_topos_bond_site_symmetry_2
_topos_bond_distance
_topos_bond_type
_topos_bond_multiplicity
O1 Si1 1_0_0_0 1_0_0_0 1.6090 V 24
O1 Si2 1_0_0_0 1_0_0_0 1.6100 V 24
O2 Si1 1_0_0_0 1_1_0_0 1.6100 V 24
O3 Si1 1_0_0_0 1_0_0_0 1.6100 V 24
O4 Si1 1_0_0_0 1_0_0_0 1.6100 V 24
O5 Si2 1_0_0_0 1_0_0_0 1.6100 V 12
O6 Si2 1_0_0_0 1_0_0_0 1.6090 V 12
Lr2 Lr2 1_0_0_0 2_0_1_-1 10.6950 V 6
#End of data_67-TOPOS_ERI-PPT1

data_68-TOPOS_ESV-PPT1
_audit_creation_date                2025-02-23
_audit_creation_method              ToposPro
_chemical_formula_structural        ESV-PPT1
_chemical_formula_sum               'Lr1 O12 Si6'
_citation_special_details
;
Space Group: PNMA->P n m a. File: ESV-PPT1.cif. 
;
_cell_length_a                      9.686
_cell_length_b                      12.226
_cell_length_c                      22.836
_cell_angle_alpha                   90
_cell_angle_beta                    90
_cell_angle_gamma                   90
_cell_volume                        2704.263
_cell_formula_units_Z               8
_symmetry_space_group_name_H-M      'P n m a'
_symmetry_Int_Tables_number         62
_refine_ls_R_factor_all             0
loop_
_symmetry_equiv_pos_site_id
_symmetry_equiv_pos_as_xyz
1 x,y,z
2 1/2-x,-y,1/2+z
3 1/2+x,1/2-y,1/2-z
4 -x,1/2+y,-z
5 -x,-y,-z
6 1/2+x,y,1/2-z
7 1/2-x,1/2+y,1/2+z
8 x,1/2-y,z
loop_
_atom_site_label
_atom_site_type_symbol
_atom_site_symmetry_multiplicity
_atom_site_fract_x
_atom_site_fract_y
_atom_site_fract_z
_atom_site_occupancy
O1 O 8 0.24840 0.91830 0.91900 1.0000
O2 O 8 0.49700 0.88560 0.87640 1.0000
O3 O 8 0.29660 0.94920 0.80680 1.0000
O4 O 8 0.68480 0.94800 0.47020 1.0000
O5 O 8 0.49250 0.89210 0.54570 1.0000
O6 O 8 0.96250 0.45630 0.87350 1.0000
O7 O 8 0.76530 0.60030 0.89180 1.0000
O8 O 8 0.15490 0.54250 0.70880 1.0000
O9 O 8 0.35450 0.40110 0.72800 1.0000
O10 O 8 0.12310 0.38910 0.78810 1.0000
O11 O 4 0.29570 0.75000 0.85020 1.0000
O12 O 4 0.68310 0.75000 0.51490 1.0000
O13 O 4 0.16280 0.75000 0.67830 1.0000
O14 O 4 0.95840 0.25000 0.84080 1.0000
Si1 Si 8 0.33420 0.87580 0.86300 1.0000
Si2 Si 8 0.65220 0.87700 0.52790 1.0000
Si3 Si 8 0.88390 0.52790 0.92230 1.0000
Si4 Si 8 0.14530 0.87350 0.65480 1.0000
Si5 Si 8 0.97440 0.12560 0.81860 1.0000
Si6 Si 8 0.23250 0.47080 0.75800 1.0000
Lr1 Lr 4 0.49272 0.75000 0.69856 1.0000
Lr2 Lr 4 0.59201 0.75000 0.08208 1.0000
loop_
_topos_bond_atom_site_label_1
_topos_bond_atom_site_label_2
_topos_bond_site_symmetry_1
_topos_bond_site_symmetry_2
_topos_bond_distance
_topos_bond_type
_topos_bond_multiplicity
O1 Si1 1_0_0_0 1_0_0_0 1.6110 V 8
O1 Si2 1_0_0_0 6_-1_0_1 1.6100 V 8
O2 Si1 1_0_0_0 1_0_0_0 1.6110 V 8
O2 Si4 1_0_0_0 6_0_0_1 1.6100 V 8
O3 Si1 1_0_0_0 1_0_0_0 1.6080 V 8
O3 Si6 1_0_0_0 8_0_1_0 1.6070 V 8
O4 Si2 1_0_0_0 1_0_0_0 1.6090 V 8
O4 Si3 1_0_0_0 7_1_0_-1 1.6100 V 8
O5 Si2 1_0_0_0 1_0_0_0 1.6100 V 8
O5 Si3 1_0_0_0 3_-1_1_1 1.6120 V 8
O6 Si3 1_0_0_0 1_0_0_0 1.6090 V 8
O6 Si5 1_0_0_0 8_0_0_0 1.6090 V 8
O7 Si3 1_0_0_0 1_0_0_0 1.6090 V 8
O7 Si4 1_0_0_0 3_0_1_1 1.6080 V 8
O8 Si6 1_0_0_0 1_0_0_0 1.6110 V 8
O8 Si4 1_0_0_0 8_0_1_0 1.6070 V 8
O9 Si6 1_0_0_0 1_0_0_0 1.6100 V 8
O9 Si5 1_0_0_0 3_-1_0_1 1.6090 V 8
O10 Si6 1_0_0_0 1_0_0_0 1.6100 V 8
O10 Si5 1_0_0_0 8_-1_0_0 1.6100 V 8
O11 Si1 1_0_0_0 1_0_0_0 1.6090 V 8
O12 Si2 1_0_0_0 1_0_0_0 1.6090 V 8
O13 Si4 1_0_0_0 1_0_0_0 1.6110 V 8
O14 Si5 1_0_0_0 1_0_0_0 1.6110 V 8
Lr2 Lr2 1_0_0_0 4_1_-1_0 7.3890 V 4
#End of data_68-TOPOS_ESV-PPT1

data_69-TOPOS_ETL-PPT1
_audit_creation_date                2025-02-23
_audit_creation_method              ToposPro
_chemical_formula_structural        ETL-PPT1
_chemical_formula_sum               'Lr4 O18 Si9'
_citation_special_details
;
Space Group: CMCM->C m c m. File: ETL-PPT1.cif. 
;
_cell_length_a                      7.5463
_cell_length_b                      29.163
_cell_length_c                      18.1274
_cell_angle_alpha                   90
_cell_angle_beta                    90
_cell_angle_gamma                   90
_cell_volume                        3989.347
_cell_formula_units_Z               8
_symmetry_space_group_name_H-M      'C m c m'
_symmetry_Int_Tables_number         63
_refine_ls_R_factor_all             0
loop_
_symmetry_equiv_pos_site_id
_symmetry_equiv_pos_as_xyz
1 x,y,z
2 -x,-y,1/2+z
3 x,-y,-z
4 -x,y,1/2-z
5 -x,-y,-z
6 x,y,1/2-z
7 -x,y,z
8 x,-y,1/2+z
9 1/2+x,1/2+y,z
10 1/2-x,1/2-y,1/2+z
11 1/2+x,1/2-y,-z
12 1/2-x,1/2+y,1/2-z
13 1/2-x,1/2-y,-z
14 1/2+x,1/2+y,1/2-z
15 1/2-x,1/2+y,z
16 1/2+x,1/2-y,1/2+z
loop_
_atom_site_label
_atom_site_type_symbol
_atom_site_symmetry_multiplicity
_atom_site_fract_x
_atom_site_fract_y
_atom_site_fract_z
_atom_site_occupancy
O1 O 16 0.75864 0.31682 0.09740 1.0000
O2 O 16 0.17458 0.49222 0.12462 1.0000
O3 O 16 0.67410 0.23354 0.13969 1.0000
O4 O 16 0.67454 0.12305 0.00707 1.0000
O5 O 16 0.73799 0.40491 0.12584 1.0000
O6 O 8 0.50000 0.06786 0.09552 1.0000
O7 O 8 0.50000 0.15647 0.12038 1.0000
O8 O 8 0.50000 0.46790 0.15806 1.0000
O9 O 8 0.50000 0.36577 0.04037 1.0000
O10 O 8 0.00000 0.25195 0.10067 1.0000
O11 O 4 0.50000 0.19581 0.25000 1.0000
O12 O 8 0.76163 0.45060 0.25000 1.0000
O13 O 8 0.75000 0.25000 0.00000 1.0000
O14 O 4 0.50000 0.00000 0.00000 1.0000
Si1 Si 16 0.70566 0.45387 0.16449 1.0000
Si2 Si 16 0.79491 0.26306 0.08402 1.0000
Si3 Si 16 0.70544 0.36612 0.06419 1.0000
Si4 Si 8 0.50000 0.11769 0.05728 1.0000
Si5 Si 8 0.50000 0.20503 0.16255 1.0000
Si6 Si 8 0.50000 0.01297 0.08611 1.0000
Lr1 Lr 8 0.50000 0.45807 0.00115 1.0000
Lr2 Lr 8 0.00000 0.30119 0.98857 1.0000
Lr3 Lr 4 0.50000 0.33873 0.25000 1.0000
Lr4 Lr 4 0.50000 0.64279 0.25000 1.0000
Lr5 Lr 4 0.00000 0.35986 0.25000 1.0000
Lr6 Lr 4 0.00000 0.54869 0.25000 1.0000
loop_
_topos_bond_atom_site_label_1
_topos_bond_atom_site_label_2
_topos_bond_site_symmetry_1
_topos_bond_site_symmetry_2
_topos_bond_distance
_topos_bond_type
_topos_bond_multiplicity
O1 Si3 1_0_0_0 1_0_0_0 1.6100 V 16
O1 Si2 1_0_0_0 1_0_0_0 1.6100 V 16
O2 Si6 1_0_0_0 9_-1_0_0 1.6090 V 16
O2 Si1 1_0_0_0 7_1_0_0 1.6090 V 16
O3 Si5 1_0_0_0 1_0_0_0 1.6090 V 16
O3 Si2 1_0_0_0 1_0_0_0 1.6100 V 16
O4 Si4 1_0_0_0 1_0_0_0 1.6090 V 16
O4 Si3 1_0_0_0 13_1_0_0 1.6090 V 16
O5 Si3 1_0_0_0 1_0_0_0 1.6090 V 16
O5 Si1 1_0_0_0 1_0_0_0 1.6090 V 16
O6 Si6 1_0_0_0 1_0_0_0 1.6100 V 8
O6 Si4 1_0_0_0 1_0_0_0 1.6100 V 8
O7 Si4 1_0_0_0 1_0_0_0 1.6090 V 8
O7 Si5 1_0_0_0 1_0_0_0 1.6090 V 8
O8 Si1 1_0_0_0 1_0_0_0 1.6090 V 16
O9 Si3 1_0_0_0 1_0_0_0 1.6090 V 16
O10 Si2 1_0_0_0 1_-1_0_0 1.6100 V 16
O11 Si5 1_0_0_0 1_0_0_0 1.6080 V 8
O12 Si1 1_0_0_0 1_0_0_0 1.6090 V 16
O13 Si2 1_0_0_0 1_0_0_0 1.6060 V 16
O14 Si6 1_0_0_0 1_0_0_0 1.6060 V 8
Lr1 Lr4 1_0_0_0 2_1_1_-1 5.4200 V 8
Lr1 Lr1 1_0_0_0 3_0_1_0 2.4460 V 4
Lr3 Lr5 1_0_0_0 1_0_0_0 3.8230 V 8
Lr4 Lr6 1_0_0_0 1_0_0_0 4.6660 V 8
Lr4 Lr5 1_0_0_0 9_0_0_0 6.3300 V 4
#End of data_69-TOPOS_ETL-PPT1

data_70-TOPOS_ETR-PPT1
_audit_creation_date                2025-02-23
_audit_creation_method              ToposPro
_chemical_formula_structural        ETR-PPT1
_chemical_formula_sum               'Lr1 O24 Si12'
_citation_special_details
;
Space Group: P63MC->P 63 m c. File: ETR-PPT1.cif. 
;
_cell_length_a                      20.634
_cell_length_b                      20.634
_cell_length_c                      8.426
_cell_angle_alpha                   90
_cell_angle_beta                    90
_cell_angle_gamma                   120
_cell_volume                        3106.84
_cell_formula_units_Z               4
_symmetry_space_group_name_H-M      'P 63 m c'
_symmetry_Int_Tables_number         186
_refine_ls_R_factor_all             0
loop_
_symmetry_equiv_pos_site_id
_symmetry_equiv_pos_as_xyz
1 x,y,z
2 -x,-y,1/2+z
3 -y,x-y,z
4 -x+y,-x,z
5 x-y,x,1/2+z
6 y,-x+y,1/2+z
7 -x+y,y,z
8 x,x-y,z
9 -y,-x,z
10 y,x,1/2+z
11 -x,-x+y,1/2+z
12 x-y,-y,1/2+z
loop_
_atom_site_label
_atom_site_type_symbol
_atom_site_symmetry_multiplicity
_atom_site_fract_x
_atom_site_fract_y
_atom_site_fract_z
_atom_site_occupancy
O1 O 12 0.73450 0.07500 0.83830 1.0000
O2 O 12 0.69690 0.14790 0.03700 1.0000
O3 O 12 0.71540 0.03900 0.14080 1.0000
O4 O 12 0.66110 0.15530 0.33510 1.0000
O5 O 12 0.58270 0.92090 0.08440 1.0000
O6 O 12 0.59880 0.00990 0.31950 1.0000
O7 O 6 0.83260 0.16740 0.04700 1.0000
O8 O 6 0.72380 0.27620 0.15820 1.0000
O9 O 6 0.58540 0.17080 0.10190 1.0000
O10 O 6 0.53535 0.07070 0.48870 1.0000
Si1 Si 12 0.74570 0.10730 0.01650 1.0000
Si2 Si 12 0.66680 0.18720 0.15810 1.0000
Si3 Si 12 0.63960 0.97390 0.21990 1.0000
Si4 Si 12 0.61370 0.07870 0.43350 1.0000
Lr1 Lr 2 0.00000 0.00000 0.44013 1.0000
Lr2 Lr 2 0.66667 0.33333 0.88412 1.0000
loop_
_topos_bond_atom_site_label_1
_topos_bond_atom_site_label_2
_topos_bond_site_symmetry_1
_topos_bond_site_symmetry_2
_topos_bond_distance
_topos_bond_type
_topos_bond_multiplicity
O1 Si3 1_0_0_0 12_1_1_0 1.6110 V 12
O1 Si1 1_0_0_0 1_0_0_1 1.6120 V 12
O2 Si2 1_0_0_0 1_0_0_0 1.6090 V 12
O2 Si1 1_0_0_0 1_0_0_0 1.6090 V 12
O3 Si1 1_0_0_0 1_0_0_0 1.6100 V 12
O3 Si3 1_0_0_0 1_0_-1_0 1.6110 V 12
O4 Si2 1_0_0_0 1_0_0_0 1.6110 V 12
O4 Si4 1_0_0_0 1_0_0_0 1.6110 V 12
O5 Si3 1_0_0_0 1_0_0_0 1.6110 V 12
O5 Si4 1_0_0_0 12_0_1_-1 1.6100 V 12
O6 Si4 1_0_0_0 1_0_0_0 1.6110 V 12
O6 Si3 1_0_0_0 1_0_-1_0 1.6090 V 12
O7 Si1 1_0_0_0 1_0_0_0 1.6110 V 12
O8 Si2 1_0_0_0 1_0_0_0 1.6110 V 12
O9 Si2 1_0_0_0 1_0_0_0 1.6100 V 12
O10 Si4 1_0_0_0 1_0_0_0 1.6090 V 12
Lr1 Lr2 1_0_0_0 1_0_0_0 12.4870 V 6
Lr1 Lr1 1_0_0_0 2_0_0_-1 4.2130 V 2
#End of data_70-TOPOS_ETR-PPT1

data_71-TOPOS_ETV-NT
_audit_creation_date                2025-02-23
_audit_creation_method              ToposPro
_chemical_formula_structural        ETV-NT
_chemical_formula_sum               'Lr2 O14 Si7'
_citation_special_details
;
Space Group: P-1->P -1. File: ETV-NT.cif. 
;
_cell_length_a                      8.7503
_cell_length_b                      9.6479
_cell_length_c                      10.2719
_cell_angle_alpha                   105.72
_cell_angle_beta                    100.19
_cell_angle_gamma                   97.02
_cell_volume                        808.2152
_cell_formula_units_Z               2
_symmetry_space_group_name_H-M      'P -1'
_symmetry_Int_Tables_number         2
_refine_ls_R_factor_all             0
loop_
_symmetry_equiv_pos_site_id
_symmetry_equiv_pos_as_xyz
1 x,y,z
2 -x,-y,-z
loop_
_atom_site_label
_atom_site_type_symbol
_atom_site_symmetry_multiplicity
_atom_site_fract_x
_atom_site_fract_y
_atom_site_fract_z
_atom_site_occupancy
O1 O 2 0.55500 0.22120 0.29750 1.0000
O2 O 2 0.68880 0.45170 0.94310 1.0000
O3 O 2 0.39970 0.97660 0.31160 1.0000
O4 O 2 0.39970 0.30950 0.82730 1.0000
O5 O 2 0.42260 0.20940 0.04320 1.0000
O6 O 2 0.12290 0.81560 0.28170 1.0000
O7 O 2 0.48970 0.46060 0.24130 1.0000
O8 O 2 0.71830 0.33900 0.15040 1.0000
O9 O 2 0.14460 0.18870 0.88480 1.0000
O10 O 2 0.67900 0.09280 0.47560 1.0000
O11 O 2 0.65490 0.97390 0.20890 1.0000
O12 O 2 0.38160 0.70550 0.31950 1.0000
O13 O 2 0.92340 0.56710 0.15850 1.0000
O14 O 2 0.91960 0.30780 0.98670 1.0000
Si1 Si 2 0.54620 0.30740 0.18300 1.0000
Si2 Si 2 0.55430 0.39850 0.80220 1.0000
Si3 Si 2 0.57200 0.06600 0.32330 1.0000
Si4 Si 2 0.30620 0.85140 0.35940 1.0000
Si5 Si 2 0.32820 0.18360 0.88670 1.0000
Si6 Si 2 0.99550 0.72200 0.14260 1.0000
Si7 Si 2 0.81270 0.41600 0.06000 1.0000
Lr1 Lr 2 0.17660 0.30761 0.39173 1.0000
Lr2 Lr 1 0.50000 0.50000 0.00000 1.0000
Lr3 Lr 1 0.00000 0.00000 0.00000 1.0000
loop_
_topos_bond_atom_site_label_1
_topos_bond_atom_site_label_2
_topos_bond_site_symmetry_1
_topos_bond_site_symmetry_2
_topos_bond_distance
_topos_bond_type
_topos_bond_multiplicity
O1 Si3 1_0_0_0 1_0_0_0 1.6090 V 2
O1 Si1 1_0_0_0 1_0_0_0 1.6110 V 2
O2 Si2 1_0_0_0 1_0_0_0 1.6090 V 2
O2 Si7 1_0_0_0 1_0_0_1 1.6100 V 2
O3 Si4 1_0_0_0 1_0_0_0 1.6100 V 2
O3 Si3 1_0_0_0 1_0_1_0 1.6100 V 2
O4 Si5 1_0_0_0 1_0_0_0 1.6090 V 2
O4 Si2 1_0_0_0 1_0_0_0 1.6100 V 2
O5 Si1 1_0_0_0 1_0_0_0 1.6100 V 2
O5 Si5 1_0_0_0 1_0_0_-1 1.6100 V 2
O6 Si4 1_0_0_0 1_0_0_0 1.6100 V 2
O6 Si6 1_0_0_0 1_-1_0_0 1.6100 V 2
O7 Si1 1_0_0_0 1_0_0_0 1.6100 V 2
O7 Si2 1_0_0_0 2_1_1_1 1.6100 V 2
O8 Si7 1_0_0_0 1_0_0_0 1.6100 V 2
O8 Si1 1_0_0_0 1_0_0_0 1.6110 V 2
O9 Si5 1_0_0_0 1_0_0_0 1.6100 V 2
O9 Si6 1_0_0_0 2_1_1_1 1.6100 V 2
O10 Si3 1_0_0_0 1_0_0_0 1.6110 V 2
O10 Si4 1_0_0_0 2_1_1_1 1.6090 V 2
O11 Si3 1_0_0_0 1_0_1_0 1.6090 V 2
O11 Si5 1_0_0_0 2_1_1_1 1.6100 V 2
O12 Si4 1_0_0_0 1_0_0_0 1.6110 V 2
O12 Si2 1_0_0_0 2_1_1_1 1.6090 V 2
O13 Si7 1_0_0_0 1_0_0_0 1.6110 V 2
O13 Si6 1_0_0_0 1_0_0_0 1.6110 V 2
O14 Si6 1_0_0_0 2_2_1_1 1.6100 V 2
O14 Si7 1_0_0_0 1_0_0_1 1.6100 V 2
Lr1 Lr3 1_0_0_0 1_0_0_0 4.1950 V 2
Lr1 Lr1 1_0_0_0 2_0_0_1 7.4050 V 1
Lr1 Lr1 1_0_0_0 2_1_1_1 6.0580 V 1
Lr1 Lr1 1_0_0_0 2_0_1_1 5.3890 V 1
#End of data_71-TOPOS_ETV-NT

data_72-TOPOS_EUO-PPT1
_audit_creation_date                2025-02-23
_audit_creation_method              ToposPro
_chemical_formula_structural        EUO-PPT1
_chemical_formula_sum               'Lr5 O28 Si14'
_citation_special_details
;
Space Group: CMMA->C m m a. File: EUO-PPT1.cif. 
;
_cell_length_a                      13.901
_cell_length_b                      22.861
_cell_length_c                      20.582
_cell_angle_alpha                   90
_cell_angle_beta                    90
_cell_angle_gamma                   90
_cell_volume                        6540.77
_cell_formula_units_Z               8
_symmetry_space_group_name_H-M      'C m m a'
_symmetry_Int_Tables_number         67
_refine_ls_R_factor_all             0
loop_
_symmetry_equiv_pos_site_id
_symmetry_equiv_pos_as_xyz
1 x,y,z
2 1/2-x,-y,z
3 x,-y,-z
4 1/2-x,y,-z
5 -x,-y,-z
6 1/2+x,y,-z
7 -x,y,z
8 1/2+x,-y,z
9 1/2+x,1/2+y,z
10 -x,1/2-y,z
11 1/2+x,1/2-y,-z
12 -x,1/2+y,-z
13 1/2-x,1/2-y,-z
14 x,1/2+y,-z
15 1/2-x,1/2+y,z
16 x,1/2-y,z
loop_
_atom_site_label
_atom_site_type_symbol
_atom_site_symmetry_multiplicity
_atom_site_fract_x
_atom_site_fract_y
_atom_site_fract_z
_atom_site_occupancy
O1 O 16 0.24310 0.39170 0.37420 1.0000
O2 O 16 0.40320 0.43030 0.42480 1.0000
O3 O 16 0.16120 0.30780 0.09380 1.0000
O4 O 16 0.09320 0.40760 0.04430 1.0000
O5 O 16 0.24330 0.40810 0.11930 1.0000
O6 O 16 0.40440 0.43360 0.17300 1.0000
O7 O 16 0.26360 0.39370 0.24590 1.0000
O8 O 16 0.16750 0.30700 0.30310 1.0000
O9 O 16 0.09490 0.41070 0.29800 1.0000
O10 O 8 0.25000 0.41490 0.50000 1.0000
O11 O 8 0.25000 0.50000 0.41530 1.0000
O12 O 8 0.25000 0.50000 0.19590 1.0000
O13 O 8 0.25000 0.36240 0.00000 1.0000
O14 O 8 0.00000 0.49960 0.25070 1.0000
O15 O 8 0.00000 0.48080 0.37600 1.0000
O16 O 8 0.00000 0.47600 0.12520 1.0000
O17 O 4 0.00000 0.50000 0.50000 1.0000
O18 O 4 0.00000 0.50000 0.00000 1.0000
O19 O 8 0.11260 0.25000 0.19960 1.0000
O20 O 4 0.00000 0.25000 0.09690 1.0000
O21 O 4 0.00000 0.25000 0.30180 1.0000
Si1 Si 16 0.28740 0.43440 0.42900 1.0000
Si2 Si 16 0.18720 0.37110 0.06480 1.0000
Si3 Si 16 0.28980 0.43460 0.18470 1.0000
Si4 Si 16 0.19460 0.37550 0.30540 1.0000
Si5 Si 8 0.00000 0.44990 0.30590 1.0000
Si6 Si 8 0.00000 0.53140 0.43020 1.0000
Si7 Si 8 0.00000 0.44860 0.05320 1.0000
Si8 Si 8 0.00000 0.52720 0.17880 1.0000
Si9 Si 8 0.10980 0.25000 0.12160 1.0000
Si10 Si 8 0.11040 0.25000 0.27780 1.0000
Lr1 Lr 16 0.33333 0.49906 0.30590 1.0000
Lr2 Lr 8 0.00000 0.10541 0.18773 1.0000
Lr3 Lr 4 0.00000 0.25000 0.67814 1.0000
Lr4 Lr 8 0.16667 0.50000 0.50000 1.0000
Lr5 Lr 4 0.25000 0.50000 0.00000 1.0000
loop_
_topos_bond_atom_site_label_1
_topos_bond_atom_site_label_2
_topos_bond_site_symmetry_1
_topos_bond_site_symmetry_2
_topos_bond_distance
_topos_bond_type
_topos_bond_multiplicity
O1 Si4 1_0_0_0 1_0_0_0 1.6110 V 16
O1 Si1 1_0_0_0 1_0_0_0 1.6140 V 16
O2 Si1 1_0_0_0 1_0_0_0 1.6150 V 16
O2 Si6 1_0_0_0 2_0_1_0 1.6090 V 16
O3 Si2 1_0_0_0 1_0_0_0 1.6070 V 16
O3 Si9 1_0_0_0 1_0_0_0 1.6070 V 16
O4 Si2 1_0_0_0 1_0_0_0 1.6070 V 16
O4 Si7 1_0_0_0 1_0_0_0 1.6100 V 16
O5 Si2 1_0_0_0 1_0_0_0 1.6070 V 16
O5 Si3 1_0_0_0 1_0_0_0 1.6110 V 16
O6 Si3 1_0_0_0 1_0_0_0 1.6110 V 16
O6 Si8 1_0_0_0 2_0_1_0 1.6070 V 16
O7 Si4 1_0_0_0 1_0_0_0 1.6100 V 16
O7 Si3 1_0_0_0 1_0_0_0 1.6100 V 16
O8 Si4 1_0_0_0 1_0_0_0 1.6110 V 16
O8 Si10 1_0_0_0 1_0_0_0 1.6120 V 16
O9 Si5 1_0_0_0 1_0_0_0 1.6030 V 16
O9 Si4 1_0_0_0 1_0_0_0 1.6100 V 16
O10 Si1 1_0_0_0 1_0_0_0 1.6140 V 16
O11 Si1 1_0_0_0 1_0_0_0 1.6120 V 16
O12 Si3 1_0_0_0 1_0_0_0 1.6110 V 16
O13 Si2 1_0_0_0 1_0_0_0 1.6060 V 16
O14 Si5 1_0_0_0 1_0_0_0 1.6070 V 8
O14 Si8 1_0_0_0 1_0_0_0 1.6090 V 8
O15 Si5 1_0_0_0 1_0_0_0 1.6060 V 8
O15 Si6 1_0_0_0 1_0_0_0 1.6070 V 8
O16 Si8 1_0_0_0 1_0_0_0 1.6080 V 8
O16 Si7 1_0_0_0 1_0_0_0 1.6090 V 8
O17 Si6 1_0_0_0 1_0_0_0 1.6060 V 8
O18 Si7 1_0_0_0 1_0_0_0 1.6060 V 8
O19 Si9 1_0_0_0 1_0_0_0 1.6060 V 8
O19 Si10 1_0_0_0 1_0_0_0 1.6100 V 8
O20 Si9 1_0_0_0 1_0_0_0 1.6090 V 8
O21 Si10 1_0_0_0 1_0_0_0 1.6120 V 8
Lr1 Lr1 1_0_0_0 2_0_1_0 2.3170 V 8
Lr3 Lr3 1_0_0_0 4_-1_0_1 10.1040 V 4
Lr4 Lr4 1_0_0_0 2_0_1_0 2.3170 V 4
#End of data_72-TOPOS_EUO-PPT1

data_73-TOPOS_EWF-PPT1
_audit_creation_date                2025-02-23
_audit_creation_method              ToposPro
_chemical_formula_structural        EWF-PPT1
_chemical_formula_sum               'Lr14 O58 Si29'
_citation_special_details
;
Space Group: CMCM->C m c m. File: EWF-PPT1.cif. 
;
_cell_length_a                      11.0485
_cell_length_b                      22.9909
_cell_length_c                      25.4632
_cell_angle_alpha                   90
_cell_angle_beta                    90
_cell_angle_gamma                   90
_cell_volume                        6468.034
_cell_formula_units_Z               4
_symmetry_space_group_name_H-M      'C m c m'
_symmetry_Int_Tables_number         63
_refine_ls_R_factor_all             0
loop_
_symmetry_equiv_pos_site_id
_symmetry_equiv_pos_as_xyz
1 x,y,z
2 -x,-y,1/2+z
3 x,-y,-z
4 -x,y,1/2-z
5 -x,-y,-z
6 x,y,1/2-z
7 -x,y,z
8 x,-y,1/2+z
9 1/2+x,1/2+y,z
10 1/2-x,1/2-y,1/2+z
11 1/2+x,1/2-y,-z
12 1/2-x,1/2+y,1/2-z
13 1/2-x,1/2-y,-z
14 1/2+x,1/2+y,1/2-z
15 1/2-x,1/2+y,z
16 1/2+x,1/2-y,1/2+z
loop_
_atom_site_label
_atom_site_type_symbol
_atom_site_symmetry_multiplicity
_atom_site_fract_x
_atom_site_fract_y
_atom_site_fract_z
_atom_site_occupancy
O1 O 16 0.30028 0.30874 0.17553 1.0000
O2 O 16 0.31435 0.38754 0.09841 1.0000
O3 O 16 0.32446 0.42090 0.19810 1.0000
O4 O 16 0.28209 0.19826 0.15636 1.0000
O5 O 16 0.20269 0.11093 0.09736 1.0000
O6 O 16 0.15892 0.11070 0.19863 1.0000
O7 O 16 0.29747 0.42359 0.00030 1.0000
O8 O 16 0.17675 0.99999 0.07572 1.0000
O9 O 16 0.12001 0.43982 0.06885 1.0000
O10 O 16 0.38050 0.09724 0.16612 1.0000
O11 O 8 0.34803 0.23287 0.25000 1.0000
O12 O 8 0.22866 0.01621 0.25000 1.0000
O13 O 8 0.12050 0.42676 0.25000 1.0000
O14 O 8 0.50000 0.36119 0.15574 1.0000
O15 O 8 0.50000 0.24488 0.17141 1.0000
O16 O 8 0.50000 0.00569 0.19803 1.0000
O17 O 8 0.50000 0.03404 0.09782 1.0000
O18 O 8 0.00000 0.07353 0.05440 1.0000
O19 O 4 0.00000 0.04837 0.25000 1.0000
O20 O 4 0.50000 0.00000 0.00000 1.0000
Si1 Si 16 0.35942 0.24616 0.18815 1.0000
Si2 Si 16 0.35581 0.37013 0.15689 1.0000
Si3 Si 16 0.26446 0.43817 0.06044 1.0000
Si4 Si 16 0.25439 0.12954 0.15399 1.0000
Si5 Si 16 0.14440 0.06501 0.05679 1.0000
Si6 Si 8 0.26056 0.44635 0.25000 1.0000
Si7 Si 8 0.13797 0.07104 0.25000 1.0000
Si8 Si 8 0.50000 0.05875 0.15693 1.0000
Si9 Si 8 0.00000 0.47811 0.05986 1.0000
Si10 Si 4 0.00000 0.46606 0.25000 1.0000
Lr1 Lr 16 0.20490 0.50257 0.15499 1.0000
Lr2 Lr 8 0.50000 0.50337 0.15469 1.0000
Lr3 Lr 8 0.50000 0.45208 0.05433 1.0000
Lr4 Lr 4 0.50000 0.37499 0.25000 1.0000
Lr5 Lr 4 0.50000 0.10808 0.25000 1.0000
Lr6 Lr 4 0.50000 0.18863 0.75000 1.0000
Lr7 Lr 8 0.20669 0.50000 0.00000 1.0000
Lr8 Lr 4 0.50000 0.50000 0.00000 1.0000
loop_
_topos_bond_atom_site_label_1
_topos_bond_atom_site_label_2
_topos_bond_site_symmetry_1
_topos_bond_site_symmetry_2
_topos_bond_distance
_topos_bond_type
_topos_bond_multiplicity
O1 Si2 1_0_0_0 1_0_0_0 1.6110 V 16
O1 Si1 1_0_0_0 1_0_0_0 1.6130 V 16
O2 Si2 1_0_0_0 1_0_0_0 1.6090 V 16
O2 Si3 1_0_0_0 1_0_0_0 1.6100 V 16
O3 Si2 1_0_0_0 1_0_0_0 1.6070 V 16
O3 Si6 1_0_0_0 1_0_0_0 1.6080 V 16
O4 Si4 1_0_0_0 1_0_0_0 1.6100 V 16
O4 Si1 1_0_0_0 1_0_0_0 1.6120 V 16
O5 Si4 1_0_0_0 1_0_0_0 1.6090 V 16
O5 Si5 1_0_0_0 1_0_0_0 1.6110 V 16
O6 Si4 1_0_0_0 1_0_0_0 1.6100 V 16
O6 Si7 1_0_0_0 1_0_0_0 1.6110 V 16
O7 Si3 1_0_0_0 1_0_0_0 1.6090 V 16
O7 Si5 1_0_0_0 13_0_0_0 1.6110 V 16
O8 Si3 1_0_0_0 15_0_0_0 1.6100 V 16
O8 Si5 1_0_0_0 1_0_1_0 1.6110 V 16
O9 Si9 1_0_0_0 1_0_0_0 1.6080 V 16
O9 Si3 1_0_0_0 1_0_0_0 1.6110 V 16
O10 Si8 1_0_0_0 1_0_0_0 1.6070 V 16
O10 Si4 1_0_0_0 1_0_0_0 1.6090 V 16
O11 Si1 1_0_0_0 1_0_0_0 1.6090 V 16
O12 Si7 1_0_0_0 1_0_0_0 1.6100 V 8
O12 Si6 1_0_0_0 12_0_-1_0 1.6110 V 8
O13 Si10 1_0_0_0 1_0_0_0 1.6090 V 8
O13 Si6 1_0_0_0 1_0_0_0 1.6120 V 8
O14 Si2 1_0_0_0 1_0_0_0 1.6070 V 16
O15 Si1 1_0_0_0 1_0_0_0 1.6110 V 16
O16 Si8 1_0_0_0 1_0_0_0 1.6070 V 8
O16 Si10 1_0_0_0 9_0_-1_0 1.6070 V 8
O17 Si8 1_0_0_0 1_0_0_0 1.6090 V 8
O17 Si9 1_0_0_0 9_0_-1_0 1.6090 V 8
O18 Si5 1_0_0_0 1_0_0_0 1.6090 V 16
O19 Si7 1_0_0_0 1_0_0_0 1.6110 V 8
O20 Si9 1_0_0_0 9_0_-1_0 1.6050 V 8
Lr2 Lr3 1_0_0_0 1_0_0_0 2.8140 V 8
Lr3 Lr8 1_0_0_0 1_0_0_0 1.7690 V 8
Lr6 Lr6 1_0_0_0 10_0_0_-1 14.1620 V 8
#End of data_73-TOPOS_EWF-PPT1

data_74-TOPOS_EWO-PPT1
_audit_creation_date                2025-02-23
_audit_creation_method              ToposPro
_chemical_formula_structural        EWO-PPT1
_chemical_formula_sum               'Lr7 O24 Si12'
_citation_special_details
;
Space Group: C222->C 2 2 2. File: EWO-PPT1.cif. 
;
_cell_length_a                      13.8968
_cell_length_b                      17.4548
_cell_length_c                      5.1892
_cell_angle_alpha                   90
_cell_angle_beta                    90
_cell_angle_gamma                   90
_cell_volume                        1258.723
_cell_formula_units_Z               2
_symmetry_space_group_name_H-M      'C 2 2 2'
_symmetry_Int_Tables_number         21
_refine_ls_R_factor_all             0
loop_
_symmetry_equiv_pos_site_id
_symmetry_equiv_pos_as_xyz
1 x,y,z
2 -x,-y,z
3 x,-y,-z
4 -x,y,-z
5 1/2+x,1/2+y,z
6 1/2-x,1/2-y,z
7 1/2+x,1/2-y,-z
8 1/2-x,1/2+y,-z
loop_
_atom_site_label
_atom_site_type_symbol
_atom_site_symmetry_multiplicity
_atom_site_fract_x
_atom_site_fract_y
_atom_site_fract_z
_atom_site_occupancy
O1 O 8 0.23030 0.36690 0.67220 1.0000
O2 O 8 0.24140 0.11070 0.17220 1.0000
O3 O 8 0.09440 0.33390 0.00810 1.0000
O4 O 8 0.00400 0.22620 0.75000 1.0000
O5 O 8 0.09440 0.11860 0.48960 1.0000
O6 O 4 0.25000 0.25000 0.98810 1.0000
O7 O 4 0.21060 0.00000 0.50000 1.0000
Si1 Si 8 0.20880 0.33560 0.95830 1.0000
Si2 Si 8 0.20430 0.09110 0.45870 1.0000
Si3 Si 4 0.00000 0.17180 0.50000 1.0000
Si4 Si 4 0.00000 0.28050 0.00000 1.0000
Lr1 Lr 8 0.16667 0.24809 0.47229 1.0000
Lr2 Lr 2 0.00000 0.00000 0.00000 1.0000
Lr3 Lr 2 0.00000 0.50000 0.50000 1.0000
Lr4 Lr 2 0.00000 0.50000 0.00000 1.0000
loop_
_topos_bond_atom_site_label_1
_topos_bond_atom_site_label_2
_topos_bond_site_symmetry_1
_topos_bond_site_symmetry_2
_topos_bond_distance
_topos_bond_type
_topos_bond_multiplicity
O1 Si1 1_0_0_0 1_0_0_0 1.6100 V 8
O1 Si2 1_0_0_0 6_0_0_0 1.6100 V 8
O2 Si2 1_0_0_0 1_0_0_0 1.6100 V 8
O2 Si1 1_0_0_0 6_0_0_-1 1.6090 V 8
O3 Si4 1_0_0_0 1_0_0_0 1.6100 V 8
O3 Si1 1_0_0_0 1_0_0_-1 1.6110 V 8
O4 Si3 1_0_0_0 1_0_0_0 1.6090 V 8
O4 Si4 1_0_0_0 1_0_0_1 1.6080 V 8
O5 Si3 1_0_0_0 1_0_0_0 1.6080 V 8
O5 Si2 1_0_0_0 1_0_0_0 1.6090 V 8
O6 Si1 1_0_0_0 1_0_0_0 1.6080 V 8
O7 Si2 1_0_0_0 1_0_0_0 1.6070 V 8
Lr1 Lr1 1_0_0_0 6_0_0_0 2.3170 V 4
Lr3 Lr4 1_0_0_0 1_0_0_0 2.5950 V 4
#End of data_74-TOPOS_EWO-PPT1

data_75-TOPOS_EWS-PPT1
_audit_creation_date                2025-02-23
_audit_creation_method              ToposPro
_chemical_formula_structural        EWS-PPT1
_chemical_formula_sum               'Lr3 O16 Si8'
_citation_special_details
;
Space Group: CMCA->C m c a. File: EWS-PPT1.cif. 
;
_cell_length_a                      19.4083
_cell_length_b                      15.9011
_cell_length_c                      17.9763
_cell_angle_alpha                   90
_cell_angle_beta                    90
_cell_angle_gamma                   90
_cell_volume                        5547.726
_cell_formula_units_Z               12
_symmetry_space_group_name_H-M      'C m c a'
_symmetry_Int_Tables_number         64
_refine_ls_R_factor_all             0
loop_
_symmetry_equiv_pos_site_id
_symmetry_equiv_pos_as_xyz
1 x,y,z
2 1/2-x,-y,1/2+z
3 x,-y,-z
4 1/2-x,y,1/2-z
5 -x,-y,-z
6 1/2+x,y,1/2-z
7 -x,y,z
8 1/2+x,-y,1/2+z
9 1/2+x,1/2+y,z
10 -x,1/2-y,1/2+z
11 1/2+x,1/2-y,-z
12 -x,1/2+y,1/2-z
13 1/2-x,1/2-y,-z
14 x,1/2+y,1/2-z
15 1/2-x,1/2+y,z
16 x,1/2-y,1/2+z
loop_
_atom_site_label
_atom_site_type_symbol
_atom_site_symmetry_multiplicity
_atom_site_fract_x
_atom_site_fract_y
_atom_site_fract_z
_atom_site_occupancy
O1 O 16 0.90322 0.17517 0.84491 1.0000
O2 O 16 0.88135 0.21834 0.98346 1.0000
O3 O 16 0.89012 0.05709 0.94659 1.0000
O4 O 16 0.79419 0.93761 0.95282 1.0000
O5 O 16 0.67468 0.13978 0.06615 1.0000
O6 O 16 0.69276 0.98853 0.11912 1.0000
O7 O 16 0.76193 0.11496 0.17822 1.0000
O8 O 16 0.68363 0.26838 0.73407 1.0000
O9 O 16 0.66034 0.16512 0.92130 1.0000
O10 O 16 0.65190 0.11856 0.77977 1.0000
O11 O 16 0.77257 0.13736 0.84182 1.0000
O12 O 8 0.00000 0.15309 0.94588 1.0000
O13 O 8 0.75000 0.25000 0.00000 1.0000
Si1 Si 16 0.91844 0.15054 0.93031 1.0000
Si2 Si 16 0.73021 0.07684 0.10269 1.0000
Si3 Si 16 0.67438 0.20892 0.00064 1.0000
Si4 Si 16 0.69417 0.10881 0.85644 1.0000
Si5 Si 16 0.83527 0.17480 0.79347 1.0000
Si6 Si 8 0.75000 0.32638 0.75000 1.0000
Si7 Si 8 0.84272 0.00000 0.00000 1.0000
Lr1 Lr 16 0.78138 0.11677 0.94753 1.0000
Lr2 Lr 8 0.75000 0.03427 0.75000 1.0000
Lr3 Lr 8 0.75000 0.17872 0.75000 1.0000
Lr4 Lr 4 0.50000 0.50000 0.50000 1.0000
loop_
_topos_bond_atom_site_label_1
_topos_bond_atom_site_label_2
_topos_bond_site_symmetry_1
_topos_bond_site_symmetry_2
_topos_bond_distance
_topos_bond_type
_topos_bond_multiplicity
O1 Si5 1_0_0_0 1_0_0_0 1.6110 V 16
O1 Si1 1_0_0_0 1_0_0_0 1.6120 V 16
O2 Si1 1_0_0_0 1_0_0_0 1.6100 V 16
O2 Si3 1_0_0_0 13_1_0_1 1.6090 V 16
O3 Si1 1_0_0_0 1_0_0_0 1.6110 V 16
O3 Si7 1_0_0_0 1_0_0_1 1.6100 V 16
O4 Si2 1_0_0_0 3_0_1_1 1.6090 V 16
O4 Si7 1_0_0_0 1_0_1_1 1.6100 V 16
O5 Si2 1_0_0_0 1_0_0_0 1.6110 V 16
O5 Si3 1_0_0_0 1_0_0_0 1.6110 V 16
O6 Si2 1_0_0_0 1_0_1_0 1.6090 V 16
O6 Si4 1_0_0_0 3_0_1_1 1.6090 V 16
O7 Si2 1_0_0_0 1_0_0_0 1.6090 V 16
O7 Si6 1_0_0_0 13_1_0_1 1.6090 V 16
O8 Si6 1_0_0_0 1_0_0_0 1.6100 V 16
O8 Si5 1_0_0_0 4_1_0_1 1.6110 V 16
O9 Si4 1_0_0_0 1_0_0_0 1.6100 V 16
O9 Si3 1_0_0_0 1_0_0_1 1.6100 V 16
O10 Si4 1_0_0_0 1_0_0_0 1.6110 V 16
O10 Si5 1_0_0_0 4_1_0_1 1.6110 V 16
O11 Si4 1_0_0_0 1_0_0_0 1.6090 V 16
O11 Si5 1_0_0_0 1_0_0_0 1.6100 V 16
O12 Si1 1_0_0_0 1_-1_0_0 1.6080 V 16
O13 Si3 1_0_0_0 1_0_0_0 1.6060 V 16
Lr2 Lr3 1_0_0_0 1_0_0_0 2.2970 V 8
Lr4 Lr4 1_0_0_0 10_1_0_-1 12.0000 V 8
#End of data_75-TOPOS_EWS-PPT1

data_76-TOPOS_EWT-PPT1
_audit_creation_date                2025-02-23
_audit_creation_method              ToposPro
_chemical_formula_structural        EWT-PPT1
_chemical_formula_sum               'Lr8 O73 Si35'
_citation_special_details
;
Space Group: P31C->P 3 1 c. File: EWT-PPT1.cif. 
;
_cell_length_a                      19.8011
_cell_length_b                      19.8011
_cell_length_c                      14.1878
_cell_angle_alpha                   90
_cell_angle_beta                    90
_cell_angle_gamma                   120
_cell_volume                        4817.529
_cell_formula_units_Z               2
_symmetry_space_group_name_H-M      'P 3 1 c'
_symmetry_Int_Tables_number         159
_refine_ls_R_factor_all             0
loop_
_symmetry_equiv_pos_site_id
_symmetry_equiv_pos_as_xyz
1 x,y,z
2 -y,x-y,z
3 -x+y,-x,z
4 y,x,1/2+z
5 -x,-x+y,1/2+z
6 x-y,-y,1/2+z
loop_
_atom_site_label
_atom_site_type_symbol
_atom_site_symmetry_multiplicity
_atom_site_fract_x
_atom_site_fract_y
_atom_site_fract_z
_atom_site_occupancy
O1 O 6 0.87521 0.45918 0.54804 1.0000
O2 O 6 0.91520 0.42120 0.70770 1.0000
O3 O 6 0.85445 0.31883 0.57213 1.0000
O4 O 6 0.71135 0.28954 0.60233 1.0000
O5 O 6 0.73469 0.18320 0.52434 1.0000
O6 O 6 0.76863 0.21769 0.70297 1.0000
O7 O 6 0.63993 0.12301 0.38004 1.0000
O8 O 6 0.64042 0.03187 0.51410 1.0000
O9 O 6 0.72999 0.01498 0.63758 1.0000
O10 O 6 0.89555 0.48225 0.04270 1.0000
O11 O 6 0.95230 0.45773 0.88694 1.0000
O12 O 6 0.86188 0.34013 0.99561 1.0000
O13 O 6 0.74367 0.33397 0.90440 1.0000
O14 O 6 0.71839 0.23883 0.04624 1.0000
O15 O 6 0.77300 0.21882 0.88705 1.0000
O16 O 6 0.66941 0.15159 0.19906 1.0000
O17 O 6 0.72084 0.10759 0.05582 1.0000
O18 O 6 0.75167 0.01326 0.95787 1.0000
O19 O 6 0.80276 0.99963 0.78370 1.0000
O20 O 6 0.99667 0.43881 0.55263 1.0000
O21 O 6 0.71174 0.06117 0.28731 1.0000
O22 O 6 0.63864 0.13676 0.79942 1.0000
O23 O 6 0.74257 0.09132 0.79465 1.0000
O24 O 6 0.55296 0.98824 0.75517 1.0000
O25 O 2 0.66667 0.33333 0.75341 1.0000
Si1 Si 6 0.91111 0.40998 0.59500 1.0000
Si2 Si 6 0.76750 0.25253 0.60091 1.0000
Si3 Si 6 0.64947 0.11566 0.49164 1.0000
Si4 Si 6 0.73147 0.01139 0.75088 1.0000
Si5 Si 6 0.92844 0.43082 0.99469 1.0000
Si6 Si 6 0.77463 0.28303 0.95811 1.0000
Si7 Si 6 0.67341 0.15080 0.08569 1.0000
Si8 Si 6 0.73046 0.16587 0.79600 1.0000
Si9 Si 6 0.55097 0.06503 0.78803 1.0000
Si10 Si 6 0.44053 0.35306 0.28092 1.0000
Si11 Si 6 0.68113 0.98165 0.54152 1.0000
Si12 Si 2 0.66667 0.33333 0.64008 1.0000
Si13 Si 2 0.66667 0.33333 0.86675 1.0000
Lr1 Lr 6 0.61228 0.03712 0.64253 1.0000
Lr2 Lr 6 0.13669 0.51349 0.78792 1.0000
Lr3 Lr 2 0.66667 0.33333 0.28381 1.0000
Lr4 Lr 2 0.00000 0.00000 0.80242 1.0000
loop_
_topos_bond_atom_site_label_1
_topos_bond_atom_site_label_2
_topos_bond_site_symmetry_1
_topos_bond_site_symmetry_2
_topos_bond_distance
_topos_bond_type
_topos_bond_multiplicity
O1 Si1 1_0_0_0 1_0_0_0 1.6100 V 6
O1 Si3 1_0_0_0 2_1_0_0 1.6090 V 6
O2 Si1 1_0_0_0 1_0_0_0 1.6110 V 6
O2 Si9 1_0_0_0 2_1_0_0 1.6100 V 6
O3 Si2 1_0_0_0 1_0_0_0 1.6110 V 6
O3 Si1 1_0_0_0 1_0_0_0 1.6110 V 6
O4 Si2 1_0_0_0 1_0_0_0 1.6090 V 6
O4 Si12 1_0_0_0 1_0_0_0 1.6090 V 6
O5 Si3 1_0_0_0 1_0_0_0 1.6110 V 6
O5 Si2 1_0_0_0 1_0_0_0 1.6110 V 6
O6 Si2 1_0_0_0 1_0_0_0 1.6090 V 6
O6 Si8 1_0_0_0 1_0_0_0 1.6100 V 6
O7 Si3 1_0_0_0 1_0_0_0 1.6100 V 6
O7 Si10 1_0_0_0 2_1_0_0 1.6090 V 6
O8 Si3 1_0_0_0 1_0_0_0 1.6090 V 6
O8 Si11 1_0_0_0 1_0_-1_0 1.6100 V 6
O9 Si4 1_0_0_0 1_0_0_0 1.6100 V 6
O9 Si11 1_0_0_0 1_0_-1_0 1.6100 V 6
O10 Si7 1_0_0_0 2_1_0_0 1.6080 V 6
O10 Si5 1_0_0_0 1_0_0_-1 1.6090 V 6
O11 Si5 1_0_0_0 1_0_0_0 1.6100 V 6
O11 Si9 1_0_0_0 2_1_0_0 1.6100 V 6
O12 Si6 1_0_0_0 1_0_0_0 1.6100 V 6
O12 Si5 1_0_0_0 1_0_0_0 1.6110 V 6
O13 Si13 1_0_0_0 1_0_0_0 1.6100 V 6
O13 Si6 1_0_0_0 1_0_0_0 1.6100 V 6
O14 Si7 1_0_0_0 1_0_0_0 1.6100 V 6
O14 Si6 1_0_0_0 1_0_0_-1 1.6110 V 6
O15 Si6 1_0_0_0 1_0_0_0 1.6100 V 6
O15 Si8 1_0_0_0 1_0_0_0 1.6110 V 6
O16 Si7 1_0_0_0 1_0_0_0 1.6110 V 6
O16 Si10 1_0_0_0 2_1_0_0 1.6110 V 6
O17 Si7 1_0_0_0 1_0_0_0 1.6120 V 6
O17 Si11 1_0_0_0 6_1_1_-1 1.6110 V 6
O18 Si11 1_0_0_0 6_1_1_0 1.6100 V 6
O19 Si4 1_0_0_0 1_0_1_0 1.6100 V 6
O20 Si1 1_0_0_0 1_0_0_0 1.6090 V 6
O20 Si5 1_0_0_0 5_2_1_-1 1.6100 V 6
O21 Si10 1_0_0_0 2_1_0_0 1.6110 V 6
O21 Si4 1_0_0_0 6_0_0_-1 1.6110 V 6
O22 Si9 1_0_0_0 1_0_0_0 1.6100 V 6
O22 Si8 1_0_0_0 1_0_0_0 1.6100 V 6
O23 Si8 1_0_0_0 1_0_0_0 1.6100 V 6
O23 Si4 1_0_0_0 1_0_0_0 1.6100 V 6
O24 Si10 1_0_0_0 5_1_1_0 1.6100 V 6
O24 Si9 1_0_0_0 1_0_1_0 1.6100 V 6
O25 Si12 1_0_0_0 1_0_0_0 1.6080 V 2
O25 Si13 1_0_0_0 1_0_0_0 1.6080 V 2
Lr2 Lr4 1_0_0_0 1_0_0_0 9.1230 V 6
Lr2 Lr3 1_0_0_0 4_0_0_0 3.5430 V 6
Lr4 Lr4 1_0_0_0 4_0_0_-1 7.0940 V 2
#End of data_76-TOPOS_EWT-PPT1

data_77-TOPOS_EZT-PPT1
_audit_creation_date                2025-02-23
_audit_creation_method              ToposPro
_chemical_formula_structural        EZT-PPT1
_chemical_formula_sum               'Lr3 O8 Si4'
_citation_special_details
;
Space Group: IMMA->I m m a. File: EZT-PPT1.cif. 
;
_cell_length_a                      10.233
_cell_length_b                      12.558
_cell_length_c                      21.717
_cell_angle_alpha                   90
_cell_angle_beta                    90
_cell_angle_gamma                   90
_cell_volume                        2790.765
_cell_formula_units_Z               12
_symmetry_space_group_name_H-M      'I m m a'
_symmetry_Int_Tables_number         74
_refine_ls_R_factor_all             0
loop_
_symmetry_equiv_pos_site_id
_symmetry_equiv_pos_as_xyz
1 x,y,z
2 -x,1/2-y,z
3 x,-y,-z
4 -x,1/2+y,-z
5 -x,-y,-z
6 x,1/2+y,-z
7 -x,y,z
8 x,1/2-y,z
9 1/2+x,1/2+y,1/2+z
10 1/2-x,-y,1/2+z
11 1/2+x,1/2-y,1/2-z
12 1/2-x,y,1/2-z
13 1/2-x,1/2-y,1/2-z
14 1/2+x,y,1/2-z
15 1/2-x,1/2+y,1/2+z
16 1/2+x,-y,1/2+z
loop_
_atom_site_label
_atom_site_type_symbol
_atom_site_symmetry_multiplicity
_atom_site_fract_x
_atom_site_fract_y
_atom_site_fract_z
_atom_site_occupancy
O1 O 16 0.19300 0.95070 0.05420 1.0000
O2 O 16 0.37130 0.87800 0.13140 1.0000
O3 O 16 0.12850 0.90270 0.16800 1.0000
O4 O 16 0.12830 0.40590 0.47290 1.0000
O5 O 8 0.18900 0.75000 0.09050 1.0000
O6 O 8 0.00000 0.94180 0.62930 1.0000
O7 O 8 0.00000 0.05690 0.72980 1.0000
O8 O 4 0.00000 0.25000 0.77490 1.0000
O9 O 4 0.00000 0.25000 0.41790 1.0000
Si1 Si 16 0.22040 0.87080 0.11080 1.0000
Si2 Si 8 0.00000 0.06160 0.65580 1.0000
Si3 Si 8 0.00000 0.37440 0.79250 1.0000
Si4 Si 8 0.00000 0.37500 0.43400 1.0000
Si5 Si 8 0.21820 0.00000 0.50000 1.0000
Lr1 Lr 8 0.17466 0.75000 0.84976 1.0000
Lr2 Lr 4 0.00000 0.75000 0.92218 1.0000
Lr3 Lr 4 0.25000 0.75000 0.25000 1.0000
Lr4 Lr 8 0.21460 0.25000 0.18833 1.0000
Lr5 Lr 4 0.50000 0.75000 0.05391 1.0000
Lr6 Lr 4 0.50000 0.75000 0.16748 1.0000
Lr7 Lr 4 0.25000 0.25000 0.25000 1.0000
loop_
_topos_bond_atom_site_label_1
_topos_bond_atom_site_label_2
_topos_bond_site_symmetry_1
_topos_bond_site_symmetry_2
_topos_bond_distance
_topos_bond_type
_topos_bond_multiplicity
O1 Si1 1_0_0_0 1_0_0_0 1.6110 V 16
O1 Si5 1_0_0_0 10_0_1_-1 1.6110 V 16
O2 Si1 1_0_0_0 1_0_0_0 1.6100 V 16
O2 Si2 1_0_0_0 10_0_1_-1 1.6100 V 16
O3 Si1 1_0_0_0 1_0_0_0 1.6090 V 16
O3 Si3 1_0_0_0 4_0_0_1 1.6100 V 16
O4 Si4 1_0_0_0 1_0_0_0 1.6090 V 16
O4 Si5 1_0_0_0 6_0_0_1 1.6090 V 16
O5 Si1 1_0_0_0 1_0_0_0 1.6120 V 16
O6 Si4 1_0_0_0 4_0_0_1 1.6100 V 8
O6 Si2 1_0_0_0 1_0_1_0 1.6110 V 8
O7 Si2 1_0_0_0 1_0_0_0 1.6080 V 8
O7 Si3 1_0_0_0 2_0_0_0 1.6120 V 8
O8 Si3 1_0_0_0 1_0_0_0 1.6080 V 8
O9 Si4 1_0_0_0 1_0_0_0 1.6080 V 8
Lr1 Lr2 1_0_0_0 1_0_0_0 2.3810 V 8
Lr1 Lr4 1_0_0_0 3_0_1_1 0.9230 V 8
Lr2 Lr2 1_0_0_0 3_0_1_2 7.1310 V 4
Lr4 Lr7 1_0_0_0 1_0_0_0 1.3870 V 8
Lr5 Lr6 1_0_0_0 1_0_0_0 2.4660 V 4
#End of data_77-TOPOS_EZT-PPT1

data_78-TOPOS_FAR-PPT1
_audit_creation_date                2025-02-23
_audit_creation_method              ToposPro
_chemical_formula_structural        FAR-PPT1
_chemical_formula_sum               'Lr1 O12 Si6'
_citation_special_details
;
Space Group: P63/MMC->P 63/m m c. File: FAR-PPT1.cif. 
;
_cell_length_a                      12.601
_cell_length_b                      12.601
_cell_length_c                      35.743
_cell_angle_alpha                   90
_cell_angle_beta                    90
_cell_angle_gamma                   120
_cell_volume                        4915.092
_cell_formula_units_Z               14
_symmetry_space_group_name_H-M      'P 63/m m c'
_symmetry_Int_Tables_number         194
_refine_ls_R_factor_all             0
loop_
_symmetry_equiv_pos_site_id
_symmetry_equiv_pos_as_xyz
1 x,y,z
2 -x,-y,1/2+z
3 -y,x-y,z
4 -x+y,-x,z
5 x-y,x,1/2+z
6 y,-x+y,1/2+z
7 x-y,-y,-z
8 -x,-x+y,-z
9 y,x,-z
10 -y,-x,1/2-z
11 x,x-y,1/2-z
12 -x+y,y,1/2-z
13 -x,-y,-z
14 x,y,1/2-z
15 y,-x+y,-z
16 x-y,x,-z
17 -x+y,-x,1/2-z
18 -y,x-y,1/2-z
19 -x+y,y,z
20 x,x-y,z
21 -y,-x,z
22 y,x,1/2+z
23 -x,-x+y,1/2+z
24 x-y,-y,1/2+z
loop_
_atom_site_label
_atom_site_type_symbol
_atom_site_symmetry_multiplicity
_atom_site_fract_x
_atom_site_fract_y
_atom_site_fract_z
_atom_site_occupancy
O1 O 24 0.71030 0.03770 0.42970 1.0000
O2 O 24 0.31100 0.96400 0.36020 1.0000
O3 O 24 0.67100 0.97600 0.28680 1.0000
O4 O 12 0.54415 0.08830 0.45420 1.0000
O5 O 12 0.77470 0.22530 0.47440 1.0000
O6 O 12 0.11110 0.88890 0.40080 1.0000
O7 O 12 0.64500 0.00000 0.50000 1.0000
O8 O 12 0.23580 0.11790 0.37830 1.0000
O9 O 12 0.52960 0.76480 0.31980 1.0000
O10 O 12 0.46845 0.93690 0.31920 1.0000
O11 O 6 0.09880 0.90120 0.25000 1.0000
O12 O 6 0.27010 0.13505 0.25000 1.0000
Si1 Si 24 0.66810 0.08800 0.46470 1.0000
Si2 Si 24 0.24600 0.00170 0.39220 1.0000
Si3 Si 24 0.58030 0.91010 0.32160 1.0000
Si4 Si 12 0.24400 0.99650 0.25000 1.0000
Lr1 Lr 4 0.33333 0.66667 0.42845 1.0000
Lr2 Lr 2 0.00000 0.00000 0.50000 1.0000
Lr3 Lr 2 0.66667 0.33333 0.25000 1.0000
Lr4 Lr 4 0.00000 0.00000 0.32127 1.0000
Lr5 Lr 2 0.33333 0.66667 0.25000 1.0000
loop_
_topos_bond_atom_site_label_1
_topos_bond_atom_site_label_2
_topos_bond_site_symmetry_1
_topos_bond_site_symmetry_2
_topos_bond_distance
_topos_bond_type
_topos_bond_multiplicity
O1 Si1 1_0_0_0 1_0_0_0 1.6080 V 24
O1 Si2 1_0_0_0 19_1_0_0 1.6090 V 24
O2 Si3 1_0_0_0 19_0_0_0 1.6070 V 24
O2 Si2 1_0_0_0 1_0_1_0 1.6110 V 24
O3 Si3 1_0_0_0 1_0_0_0 1.6110 V 24
O3 Si4 1_0_0_0 12_0_0_0 1.6080 V 24
O4 Si1 1_0_0_0 1_0_0_0 1.6080 V 24
O5 Si1 1_0_0_0 1_0_0_0 1.6110 V 24
O6 Si2 1_0_0_0 1_0_1_0 1.6090 V 24
O7 Si1 1_0_0_0 1_0_0_0 1.6070 V 24
O8 Si2 1_0_0_0 1_0_0_0 1.6110 V 24
O9 Si3 1_0_0_0 1_0_0_0 1.6110 V 24
O10 Si3 1_0_0_0 1_0_0_0 1.6070 V 24
O11 Si4 1_0_0_0 1_0_0_0 1.6100 V 12
O12 Si4 1_0_0_0 11_0_1_0 1.6070 V 12
#End of data_78-TOPOS_FAR-PPT1

data_79-TOPOS_FAU-PPT1
_audit_creation_date                2025-02-23
_audit_creation_method              ToposPro
_chemical_formula_structural        FAU-PPT1
_chemical_formula_sum               'Lr1 O12 Si6'
_citation_special_details
;
Space Group: FD-3M->F d -3 m. File: FAU-PPT1.cif. 
;
_cell_length_a                      24.345
_cell_length_b                      24.345
_cell_length_c                      24.345
_cell_angle_alpha                   90
_cell_angle_beta                    90
_cell_angle_gamma                   90
_cell_volume                        14428.77
_cell_formula_units_Z               32
_symmetry_space_group_name_H-M      'F d -3 m'
_symmetry_Int_Tables_number         227
_refine_ls_R_factor_all             0
loop_
_symmetry_equiv_pos_site_id
_symmetry_equiv_pos_as_xyz
1 x,y,z
2 -x,-y,z
3 x,-y,-z
4 -x,y,-z
5 z,x,y
6 y,z,x
7 -z,-x,y
8 -y,z,-x
9 z,-x,-y
10 -y,-z,x
11 -z,x,-y
12 y,-z,-x
13 1/4-y,1/4-x,1/4-z
14 1/4+y,1/4+x,1/4-z
15 1/4+y,1/4-x,1/4+z
16 1/4-y,1/4+x,1/4+z
17 1/4-x,1/4-z,1/4-y
18 1/4-z,1/4-y,1/4-x
19 1/4+x,1/4+z,1/4-y
20 1/4-z,1/4+y,1/4+x
21 1/4+x,1/4-z,1/4+y
22 1/4+z,1/4+y,1/4-x
23 1/4-x,1/4+z,1/4+y
24 1/4+z,1/4-y,1/4+x
25 1/4-x,1/4-y,1/4-z
26 1/4+x,1/4+y,1/4-z
27 1/4-x,1/4+y,1/4+z
28 1/4+x,1/4-y,1/4+z
29 1/4-z,1/4-x,1/4-y
30 1/4-y,1/4-z,1/4-x
31 1/4+z,1/4+x,1/4-y
32 1/4+y,1/4-z,1/4+x
33 1/4-z,1/4+x,1/4+y
34 1/4+y,1/4+z,1/4-x
35 1/4+z,1/4-x,1/4+y
36 1/4-y,1/4+z,1/4+x
37 y,x,z
38 -y,-x,z
39 -y,x,-z
40 y,-x,-z
41 x,z,y
42 z,y,x
43 -x,-z,y
44 z,-y,-x
45 -x,z,-y
46 -z,-y,x
47 x,-z,-y
48 -z,y,-x
49 x,1/2+y,1/2+z
50 1/2+x,y,1/2+z
51 1/2+x,1/2+y,z
52 -x,1/2-y,1/2+z
53 1/2-x,-y,1/2+z
54 1/2-x,1/2-y,z
55 x,1/2-y,1/2-z
56 1/2+x,-y,1/2-z
57 1/2+x,1/2-y,-z
58 -x,1/2+y,1/2-z
59 1/2-x,y,1/2-z
60 1/2-x,1/2+y,-z
61 z,1/2+x,1/2+y
62 1/2+z,x,1/2+y
63 1/2+z,1/2+x,y
64 y,1/2+z,1/2+x
65 1/2+y,z,1/2+x
66 1/2+y,1/2+z,x
67 -z,1/2-x,1/2+y
68 1/2-z,-x,1/2+y
69 1/2-z,1/2-x,y
70 -y,1/2+z,1/2-x
71 1/2-y,z,1/2-x
72 1/2-y,1/2+z,-x
73 z,1/2-x,1/2-y
74 1/2+z,-x,1/2-y
75 1/2+z,1/2-x,-y
76 -y,1/2-z,1/2+x
77 1/2-y,-z,1/2+x
78 1/2-y,1/2-z,x
79 -z,1/2+x,1/2-y
80 1/2-z,x,1/2-y
81 1/2-z,1/2+x,-y
82 y,1/2-z,1/2-x
83 1/2+y,-z,1/2-x
84 1/2+y,1/2-z,-x
85 1/4-y,3/4-x,3/4-z
86 3/4-y,1/4-x,3/4-z
87 3/4-y,3/4-x,1/4-z
88 1/4+y,3/4+x,3/4-z
89 3/4+y,1/4+x,3/4-z
90 3/4+y,3/4+x,1/4-z
91 1/4+y,3/4-x,3/4+z
92 3/4+y,1/4-x,3/4+z
93 3/4+y,3/4-x,1/4+z
94 1/4-y,3/4+x,3/4+z
95 3/4-y,1/4+x,3/4+z
96 3/4-y,3/4+x,1/4+z
97 1/4-x,3/4-z,3/4-y
98 3/4-x,1/4-z,3/4-y
99 3/4-x,3/4-z,1/4-y
100 1/4-z,3/4-y,3/4-x
101 3/4-z,1/4-y,3/4-x
102 3/4-z,3/4-y,1/4-x
103 1/4+x,3/4+z,3/4-y
104 3/4+x,1/4+z,3/4-y
105 3/4+x,3/4+z,1/4-y
106 1/4-z,3/4+y,3/4+x
107 3/4-z,1/4+y,3/4+x
108 3/4-z,3/4+y,1/4+x
109 1/4+x,3/4-z,3/4+y
110 3/4+x,1/4-z,3/4+y
111 3/4+x,3/4-z,1/4+y
112 1/4+z,3/4+y,3/4-x
113 3/4+z,1/4+y,3/4-x
114 3/4+z,3/4+y,1/4-x
115 1/4-x,3/4+z,3/4+y
116 3/4-x,1/4+z,3/4+y
117 3/4-x,3/4+z,1/4+y
118 1/4+z,3/4-y,3/4+x
119 3/4+z,1/4-y,3/4+x
120 3/4+z,3/4-y,1/4+x
121 1/4-x,3/4-y,3/4-z
122 3/4-x,1/4-y,3/4-z
123 3/4-x,3/4-y,1/4-z
124 1/4+x,3/4+y,3/4-z
125 3/4+x,1/4+y,3/4-z
126 3/4+x,3/4+y,1/4-z
127 1/4-x,3/4+y,3/4+z
128 3/4-x,1/4+y,3/4+z
129 3/4-x,3/4+y,1/4+z
130 1/4+x,3/4-y,3/4+z
131 3/4+x,1/4-y,3/4+z
132 3/4+x,3/4-y,1/4+z
133 1/4-z,3/4-x,3/4-y
134 3/4-z,1/4-x,3/4-y
135 3/4-z,3/4-x,1/4-y
136 1/4-y,3/4-z,3/4-x
137 3/4-y,1/4-z,3/4-x
138 3/4-y,3/4-z,1/4-x
139 1/4+z,3/4+x,3/4-y
140 3/4+z,1/4+x,3/4-y
141 3/4+z,3/4+x,1/4-y
142 1/4+y,3/4-z,3/4+x
143 3/4+y,1/4-z,3/4+x
144 3/4+y,3/4-z,1/4+x
145 1/4-z,3/4+x,3/4+y
146 3/4-z,1/4+x,3/4+y
147 3/4-z,3/4+x,1/4+y
148 1/4+y,3/4+z,3/4-x
149 3/4+y,1/4+z,3/4-x
150 3/4+y,3/4+z,1/4-x
151 1/4+z,3/4-x,3/4+y
152 3/4+z,1/4-x,3/4+y
153 3/4+z,3/4-x,1/4+y
154 1/4-y,3/4+z,3/4+x
155 3/4-y,1/4+z,3/4+x
156 3/4-y,3/4+z,1/4+x
157 y,1/2+x,1/2+z
158 1/2+y,x,1/2+z
159 1/2+y,1/2+x,z
160 -y,1/2-x,1/2+z
161 1/2-y,-x,1/2+z
162 1/2-y,1/2-x,z
163 -y,1/2+x,1/2-z
164 1/2-y,x,1/2-z
165 1/2-y,1/2+x,-z
166 y,1/2-x,1/2-z
167 1/2+y,-x,1/2-z
168 1/2+y,1/2-x,-z
169 x,1/2+z,1/2+y
170 1/2+x,z,1/2+y
171 1/2+x,1/2+z,y
172 z,1/2+y,1/2+x
173 1/2+z,y,1/2+x
174 1/2+z,1/2+y,x
175 -x,1/2-z,1/2+y
176 1/2-x,-z,1/2+y
177 1/2-x,1/2-z,y
178 z,1/2-y,1/2-x
179 1/2+z,-y,1/2-x
180 1/2+z,1/2-y,-x
181 -x,1/2+z,1/2-y
182 1/2-x,z,1/2-y
183 1/2-x,1/2+z,-y
184 -z,1/2-y,1/2+x
185 1/2-z,-y,1/2+x
186 1/2-z,1/2-y,x
187 x,1/2-z,1/2-y
188 1/2+x,-z,1/2-y
189 1/2+x,1/2-z,-y
190 -z,1/2+y,1/2-x
191 1/2-z,y,1/2-x
192 1/2-z,1/2+y,-x
loop_
_atom_site_label
_atom_site_type_symbol
_atom_site_symmetry_multiplicity
_atom_site_fract_x
_atom_site_fract_y
_atom_site_fract_z
_atom_site_occupancy
O1 O 96 0.02080 0.22920 0.12500 1.0000
O2 O 96 0.09190 0.20120 0.20120 1.0000
O3 O 96 0.12160 0.26790 0.12160 1.0000
O4 O 96 0.05330 0.30200 0.19800 1.0000
Si1 Si 192 0.07190 0.25010 0.16140 1.0000
Lr1 Lr 8 0.25000 0.25000 0.25000 1.0000
Lr2 Lr 8 0.75000 0.25000 0.25000 1.0000
Lr3 Lr 16 0.12500 0.12500 0.12500 1.0000
loop_
_topos_bond_atom_site_label_1
_topos_bond_atom_site_label_2
_topos_bond_site_symmetry_1
_topos_bond_site_symmetry_2
_topos_bond_distance
_topos_bond_type
_topos_bond_multiplicity
O1 Si1 1_0_0_0 1_0_0_0 1.6100 V 192
O2 Si1 1_0_0_0 1_0_0_0 1.6100 V 192
O3 Si1 1_0_0_0 1_0_0_0 1.6100 V 192
O4 Si1 1_0_0_0 1_0_0_0 1.6110 V 192
Lr2 Lr2 1_0_0_0 15_0_1_0 10.5420 V 16
#End of data_79-TOPOS_FAU-PPT1

data_80-TOPOS_FER-PPT1
_audit_creation_date                2025-02-23
_audit_creation_method              ToposPro
_chemical_formula_structural        FER-PPT1
_chemical_formula_sum               'Lr7 O36 Si18'
_citation_special_details
;
Space Group: IMMM->I m m m. File: FER-PPT1.cif. 
;
_cell_length_a                      19.018
_cell_length_b                      14.303
_cell_length_c                      7.541
_cell_angle_alpha                   90
_cell_angle_beta                    90
_cell_angle_gamma                   90
_cell_volume                        2051.261
_cell_formula_units_Z               2
_symmetry_space_group_name_H-M      'I m m m'
_symmetry_Int_Tables_number         71
_refine_ls_R_factor_all             0
loop_
_symmetry_equiv_pos_site_id
_symmetry_equiv_pos_as_xyz
1 x,y,z
2 -x,-y,z
3 x,-y,-z
4 -x,y,-z
5 -x,-y,-z
6 x,y,-z
7 -x,y,z
8 x,-y,z
9 1/2+x,1/2+y,1/2+z
10 1/2-x,1/2-y,1/2+z
11 1/2+x,1/2-y,1/2-z
12 1/2-x,1/2+y,1/2-z
13 1/2-x,1/2-y,1/2-z
14 1/2+x,1/2+y,1/2-z
15 1/2-x,1/2+y,1/2+z
16 1/2+x,1/2-y,1/2+z
loop_
_atom_site_label
_atom_site_type_symbol
_atom_site_symmetry_multiplicity
_atom_site_fract_x
_atom_site_fract_y
_atom_site_fract_z
_atom_site_occupancy
O1 O 16 0.32010 0.09180 0.25010 1.0000
O2 O 16 0.38480 0.24930 0.32570 1.0000
O3 O 8 0.34290 0.21620 0.00000 1.0000
O4 O 8 0.10630 0.09180 0.00000 1.0000
O5 O 8 0.25000 0.25000 0.25000 1.0000
O6 O 4 0.00000 0.20940 0.00000 1.0000
O7 O 8 0.20410 0.00000 0.17430 1.0000
O8 O 4 0.25290 0.00000 0.50000 1.0000
Si1 Si 16 0.32440 0.20180 0.20640 1.0000
Si2 Si 8 0.08430 0.20040 0.00000 1.0000
Si3 Si 8 0.27430 0.00000 0.29350 1.0000
Si4 Si 4 0.15530 0.00000 0.00000 1.0000
Lr1 Lr 8 0.22353 0.15005 0.00000 1.0000
Lr2 Lr 2 0.50000 0.50000 0.00000 1.0000
Lr3 Lr 2 0.50000 0.00000 0.00000 1.0000
Lr4 Lr 2 0.50000 0.00000 0.50000 1.0000
loop_
_topos_bond_atom_site_label_1
_topos_bond_atom_site_label_2
_topos_bond_site_symmetry_1
_topos_bond_site_symmetry_2
_topos_bond_distance
_topos_bond_type
_topos_bond_multiplicity
O1 Si3 1_0_0_0 1_0_0_0 1.6090 V 16
O1 Si1 1_0_0_0 1_0_0_0 1.6100 V 16
O2 Si1 1_0_0_0 1_0_0_0 1.6090 V 16
O2 Si2 1_0_0_0 10_0_0_0 1.6100 V 16
O3 Si1 1_0_0_0 1_0_0_0 1.6090 V 16
O4 Si2 1_0_0_0 1_0_0_0 1.6090 V 8
O4 Si4 1_0_0_0 1_0_0_0 1.6100 V 8
O5 Si1 1_0_0_0 1_0_0_0 1.6080 V 16
O6 Si2 1_0_0_0 1_0_0_0 1.6080 V 8
O7 Si4 1_0_0_0 1_0_0_0 1.6090 V 8
O7 Si3 1_0_0_0 1_0_0_0 1.6090 V 8
O8 Si3 1_0_0_0 1_0_0_0 1.6100 V 8
Lr2 Lr3 1_0_0_0 1_0_0_0 7.1520 V 4
Lr3 Lr4 1_0_0_0 1_0_0_0 3.7710 V 4
#End of data_80-TOPOS_FER-PPT1

data_81-TOPOS_FRA-PPT1
_audit_creation_date                2025-02-23
_audit_creation_method              ToposPro
_chemical_formula_structural        FRA-PPT1
_chemical_formula_sum               'Lr1 O12 Si6'
_citation_special_details
;
Space Group: P-3M1->P -3 m 1. File: FRA-PPT1.cif. 
;
_cell_length_a                      12.916
_cell_length_b                      12.916
_cell_length_c                      26.543
_cell_angle_alpha                   90
_cell_angle_beta                    90
_cell_angle_gamma                   120
_cell_volume                        3834.747
_cell_formula_units_Z               10
_symmetry_space_group_name_H-M      'P -3 m 1'
_symmetry_Int_Tables_number         164
_refine_ls_R_factor_all             0
loop_
_symmetry_equiv_pos_site_id
_symmetry_equiv_pos_as_xyz
1 x,y,z
2 -y,x-y,z
3 -x+y,-x,z
4 x-y,-y,-z
5 -x,-x+y,-z
6 y,x,-z
7 -x,-y,-z
8 y,-x+y,-z
9 x-y,x,-z
10 -x+y,y,z
11 x,x-y,z
12 -y,-x,z
loop_
_atom_site_label
_atom_site_type_symbol
_atom_site_symmetry_multiplicity
_atom_site_fract_x
_atom_site_fract_y
_atom_site_fract_z
_atom_site_occupancy
O1 O 12 0.66540 0.97600 0.65040 1.0000
O2 O 12 0.33470 0.31080 0.45070 1.0000
O3 O 12 0.35690 0.35680 0.85030 1.0000
O4 O 12 0.33390 0.31040 0.04950 1.0000
O5 O 12 0.33310 0.30950 0.75030 1.0000
O6 O 6 0.42750 0.21375 0.10640 1.0000
O7 O 6 0.23670 0.11835 0.50680 1.0000
O8 O 6 0.44490 0.22245 0.40010 1.0000
O9 O 6 0.42790 0.21395 0.80710 1.0000
O10 O 6 0.90520 0.45260 0.09300 1.0000
O11 O 6 0.88065 0.76130 0.29320 1.0000
O12 O 6 0.53940 0.07880 0.40010 1.0000
O13 O 6 0.88035 0.76070 0.69310 1.0000
O14 O 6 0.45280 0.54720 0.20660 1.0000
O15 O 6 0.11820 0.23640 0.00680 1.0000
Si1 Si 12 0.41600 0.33333 0.09970 1.0000
Si2 Si 12 0.41600 0.33333 0.80030 1.0000
Si3 Si 12 0.41520 0.33140 0.40010 1.0000
Si4 Si 12 0.25080 0.25080 0.70010 1.0000
Si5 Si 6 0.25000 0.25000 0.00000 1.0000
Si6 Si 6 0.25020 0.25020 0.50000 1.0000
Lr1 Lr 2 0.66667 0.33333 0.24985 1.0000
Lr2 Lr 2 0.66667 0.33333 0.60008 1.0000
Lr3 Lr 2 0.33333 0.66667 0.04992 1.0000
Lr4 Lr 2 0.00000 0.00000 0.14982 1.0000
Lr5 Lr 2 0.00000 0.00000 0.40000 1.0000
loop_
_topos_bond_atom_site_label_1
_topos_bond_atom_site_label_2
_topos_bond_site_symmetry_1
_topos_bond_site_symmetry_2
_topos_bond_distance
_topos_bond_type
_topos_bond_multiplicity
O1 Si4 1_0_0_0 2_1_1_0 1.6350 V 12
O1 Si3 1_0_0_0 5_1_1_1 1.6350 V 12
O2 Si6 1_0_0_0 1_0_0_0 1.6320 V 12
O2 Si3 1_0_0_0 1_0_0_0 1.6370 V 12
O3 Si2 1_0_0_0 1_0_0_0 1.6330 V 12
O3 Si1 1_0_0_0 6_0_0_1 1.6340 V 12
O4 Si5 1_0_0_0 1_0_0_0 1.6320 V 12
O4 Si1 1_0_0_0 1_0_0_0 1.6350 V 12
O5 Si2 1_0_0_0 1_0_0_0 1.6350 V 12
O5 Si4 1_0_0_0 1_0_0_0 1.6350 V 12
O6 Si1 1_0_0_0 1_0_0_0 1.6340 V 12
O7 Si6 1_0_0_0 8_0_0_1 1.6330 V 12
O8 Si3 1_0_0_0 1_0_0_0 1.6330 V 12
O9 Si2 1_0_0_0 1_0_0_0 1.6340 V 12
O10 Si1 1_0_0_0 3_1_1_0 1.6340 V 12
O11 Si4 1_0_0_0 4_1_1_1 1.6350 V 12
O12 Si3 1_0_0_0 2_1_0_0 1.6370 V 12
O13 Si4 1_0_0_0 3_1_1_0 1.6350 V 12
O14 Si2 1_0_0_0 6_0_0_1 1.6340 V 12
O15 Si5 1_0_0_0 9_0_0_0 1.6320 V 12
#End of data_81-TOPOS_FRA-PPT1

data_82-TOPOS_GIS-PPT1
_audit_creation_date                2025-02-23
_audit_creation_method              ToposPro
_chemical_formula_structural        GIS-PPT1
_chemical_formula_sum               'Lr1 O8 Si4'
_citation_special_details
;
Space Group: I41/AMD->I 41/a m d. File: GIS-PPT1.cif. 
;
_cell_length_a                      9.801
_cell_length_b                      9.801
_cell_length_c                      10.158
_cell_angle_alpha                   90
_cell_angle_beta                    90
_cell_angle_gamma                   90
_cell_volume                        975.7734
_cell_formula_units_Z               4
_symmetry_space_group_name_H-M      'I 41/a m d'
_symmetry_Int_Tables_number         141
_refine_ls_R_factor_all             0
loop_
_symmetry_equiv_pos_site_id
_symmetry_equiv_pos_as_xyz
1 x,y,z
2 -x,-y,z
3 x,1/2-y,1/4-z
4 -x,1/2+y,1/4-z
5 -y,-x,-z
6 y,x,-z
7 y,1/2-x,1/4+z
8 -y,1/2+x,1/4+z
9 -x,1/2-y,1/4-z
10 x,1/2+y,1/4-z
11 -x,y,z
12 x,-y,z
13 y,1/2+x,1/4+z
14 -y,1/2-x,1/4+z
15 -y,x,-z
16 y,-x,-z
17 1/2+x,1/2+y,1/2+z
18 1/2-x,1/2-y,1/2+z
19 1/2+x,-y,3/4-z
20 1/2-x,y,3/4-z
21 1/2-y,1/2-x,1/2-z
22 1/2+y,1/2+x,1/2-z
23 1/2+y,-x,3/4+z
24 1/2-y,x,3/4+z
25 1/2-x,-y,3/4-z
26 1/2+x,y,3/4-z
27 1/2-x,1/2+y,1/2+z
28 1/2+x,1/2-y,1/2+z
29 1/2+y,x,3/4+z
30 1/2-y,-x,3/4+z
31 1/2-y,1/2+x,1/2-z
32 1/2+y,1/2-x,1/2-z
loop_
_atom_site_label
_atom_site_type_symbol
_atom_site_symmetry_multiplicity
_atom_site_fract_x
_atom_site_fract_y
_atom_site_fract_z
_atom_site_occupancy
O1 O 16 0.50000 0.81670 0.28350 1.0000
O2 O 16 0.75000 0.79860 0.37500 1.0000
Si1 Si 16 0.65860 0.84140 0.25000 1.0000
Lr1 Lr 4 0.50000 0.00000 0.75000 1.0000
loop_
_topos_bond_atom_site_label_1
_topos_bond_atom_site_label_2
_topos_bond_site_symmetry_1
_topos_bond_site_symmetry_2
_topos_bond_distance
_topos_bond_type
_topos_bond_multiplicity
O1 Si1 1_0_0_0 1_0_0_0 1.6100 V 32
O2 Si1 1_0_0_0 1_0_0_0 1.6100 V 32
Lr1 Lr1 1_0_0_0 3_0_0_1 5.5190 V 8
#End of data_82-TOPOS_GIS-PPT1

data_83-TOPOS_GIU-PPT1
_audit_creation_date                2025-02-23
_audit_creation_method              ToposPro
_chemical_formula_structural        GIU-PPT1
_chemical_formula_sum               'Lr1 O12 Si6'
_citation_special_details
;
Space Group: P63/MMC->P 63/m m c. File: GIU-PPT1.cif. 
;
_cell_length_a                      12.559
_cell_length_b                      12.559
_cell_length_c                      41.026
_cell_angle_alpha                   90
_cell_angle_beta                    90
_cell_angle_gamma                   120
_cell_volume                        5604.023
_cell_formula_units_Z               16
_symmetry_space_group_name_H-M      'P 63/m m c'
_symmetry_Int_Tables_number         194
_refine_ls_R_factor_all             0
loop_
_symmetry_equiv_pos_site_id
_symmetry_equiv_pos_as_xyz
1 x,y,z
2 -x,-y,1/2+z
3 -y,x-y,z
4 -x+y,-x,z
5 x-y,x,1/2+z
6 y,-x+y,1/2+z
7 x-y,-y,-z
8 -x,-x+y,-z
9 y,x,-z
10 -y,-x,1/2-z
11 x,x-y,1/2-z
12 -x+y,y,1/2-z
13 -x,-y,-z
14 x,y,1/2-z
15 y,-x+y,-z
16 x-y,x,-z
17 -x+y,-x,1/2-z
18 -y,x-y,1/2-z
19 -x+y,y,z
20 x,x-y,z
21 -y,-x,z
22 y,x,1/2+z
23 -x,-x+y,1/2+z
24 x-y,-y,1/2+z
loop_
_atom_site_label
_atom_site_type_symbol
_atom_site_symmetry_multiplicity
_atom_site_fract_x
_atom_site_fract_y
_atom_site_fract_z
_atom_site_occupancy
O1 O 24 0.70110 0.04100 0.97000 1.0000
O2 O 24 0.63580 0.99580 0.78210 1.0000
O3 O 24 0.64470 0.62800 0.09040 1.0000
O4 O 24 0.65290 0.01120 0.84610 1.0000
O5 O 12 0.77200 0.88600 0.98930 1.0000
O6 O 12 0.57460 0.78730 0.07500 1.0000
O7 O 12 0.60230 0.80115 0.87250 1.0000
O8 O 12 0.60200 0.80100 0.19030 1.0000
O9 O 6 0.43035 0.86070 0.75000 1.0000
O10 O 6 0.60610 0.80305 0.75000 1.0000
O11 O 12 0.44300 0.55700 0.05610 1.0000
O12 O 12 0.43350 0.56650 0.18610 1.0000
O13 O 12 0.43440 0.86880 0.87160 1.0000
Si1 Si 24 0.58020 0.66810 0.06300 1.0000
Si2 Si 24 0.57900 0.91560 0.87500 1.0000
Si3 Si 24 0.57880 0.66350 0.18700 1.0000
Si4 Si 12 0.57660 0.91370 0.75000 1.0000
Si5 Si 12 0.75500 0.00000 0.00000 1.0000
Lr1 Lr 4 0.33333 0.66667 0.12500 1.0000
Lr2 Lr 4 0.33333 0.66667 0.81267 1.0000
Lr3 Lr 4 0.66667 0.33333 0.03125 1.0000
Lr4 Lr 2 0.00000 0.00000 0.25000 1.0000
Lr5 Lr 2 0.33333 0.66667 0.25000 1.0000
loop_
_topos_bond_atom_site_label_1
_topos_bond_atom_site_label_2
_topos_bond_site_symmetry_1
_topos_bond_site_symmetry_2
_topos_bond_distance
_topos_bond_type
_topos_bond_multiplicity
O1 Si5 1_0_0_0 1_0_0_1 1.6080 V 24
O1 Si1 1_0_0_0 15_0_0_1 1.6110 V 24
O2 Si4 1_0_0_0 1_0_0_0 1.6070 V 24
O2 Si3 1_0_0_0 15_0_1_1 1.6080 V 24
O3 Si1 1_0_0_0 1_0_0_0 1.6070 V 24
O3 Si2 1_0_0_0 16_1_0_1 1.6100 V 24
O4 Si3 1_0_0_0 15_0_0_1 1.6100 V 24
O4 Si2 1_0_0_0 1_0_-1_0 1.6110 V 24
O5 Si5 1_0_0_0 16_0_0_1 1.6110 V 24
O6 Si1 1_0_0_0 1_0_0_0 1.6110 V 24
O7 Si2 1_0_0_0 1_0_0_0 1.6070 V 24
O8 Si3 1_0_0_0 1_0_0_0 1.6070 V 24
O9 Si4 1_0_0_0 1_0_0_0 1.6110 V 12
O10 Si4 1_0_0_0 1_0_0_0 1.6070 V 12
O11 Si1 1_0_0_0 1_0_0_0 1.6100 V 24
O12 Si3 1_0_0_0 1_0_0_0 1.6100 V 24
O13 Si2 1_0_0_0 1_0_0_0 1.6110 V 24
#End of data_83-TOPOS_GIU-PPT1

data_84-TOPOS_GME-PPT1
_audit_creation_date                2025-02-23
_audit_creation_method              ToposPro
_chemical_formula_structural        GME-PPT1
_chemical_formula_sum               'Lr1 O8 Si4'
_citation_special_details
;
Space Group: P63/MMC->P 63/m m c. File: GME-PPT1.cif. 
;
_cell_length_a                      13.672
_cell_length_b                      13.672
_cell_length_c                      9.85
_cell_angle_alpha                   90
_cell_angle_beta                    90
_cell_angle_gamma                   120
_cell_volume                        1594.524
_cell_formula_units_Z               6
_symmetry_space_group_name_H-M      'P 63/m m c'
_symmetry_Int_Tables_number         194
_refine_ls_R_factor_all             0
loop_
_symmetry_equiv_pos_site_id
_symmetry_equiv_pos_as_xyz
1 x,y,z
2 -x,-y,1/2+z
3 -y,x-y,z
4 -x+y,-x,z
5 x-y,x,1/2+z
6 y,-x+y,1/2+z
7 x-y,-y,-z
8 -x,-x+y,-z
9 y,x,-z
10 -y,-x,1/2-z
11 x,x-y,1/2-z
12 -x+y,y,1/2-z
13 -x,-y,-z
14 x,y,1/2-z
15 y,-x+y,-z
16 x-y,x,-z
17 -x+y,-x,1/2-z
18 -y,x-y,1/2-z
19 -x+y,y,z
20 x,x-y,z
21 -y,-x,z
22 y,x,1/2+z
23 -x,-x+y,1/2+z
24 x-y,-y,1/2+z
loop_
_atom_site_label
_atom_site_type_symbol
_atom_site_symmetry_multiplicity
_atom_site_fract_x
_atom_site_fract_y
_atom_site_fract_z
_atom_site_occupancy
O1 O 12 0.56875 0.13750 0.06560 1.0000
O2 O 12 0.35650 0.00000 0.00000 1.0000
O3 O 12 0.40940 0.07520 0.25000 1.0000
O4 O 12 0.42590 0.21295 0.05360 1.0000
Si1 Si 24 0.44030 0.10640 0.09240 1.0000
Lr1 Lr 2 0.66667 0.33333 0.25000 1.0000
Lr2 Lr 2 0.00000 0.00000 0.25000 1.0000
Lr3 Lr 2 0.33333 0.66667 0.25000 1.0000
loop_
_topos_bond_atom_site_label_1
_topos_bond_atom_site_label_2
_topos_bond_site_symmetry_1
_topos_bond_site_symmetry_2
_topos_bond_distance
_topos_bond_type
_topos_bond_multiplicity
O1 Si1 1_0_0_0 1_0_0_0 1.6090 V 24
O2 Si1 1_0_0_0 1_0_0_0 1.6100 V 24
O3 Si1 1_0_0_0 1_0_0_0 1.6090 V 24
O4 Si1 1_0_0_0 1_0_0_0 1.6110 V 24
Lr2 Lr3 1_0_0_0 1_0_0_0 7.8940 V 6
Lr2 Lr2 1_0_0_0 2_0_0_-1 4.9250 V 2
#End of data_84-TOPOS_GME-PPT1

data_85-TOPOS_GON-PPT1
_audit_creation_date                2025-02-23
_audit_creation_method              ToposPro
_chemical_formula_structural        GON-PPT1
_chemical_formula_sum               'Lr5 O16 Si8'
_citation_special_details
;
Space Group: C222->C 2 2 2. File: GON-PPT1.cif. 
;
_cell_length_a                      16.5
_cell_length_b                      20.185
_cell_length_c                      5.08
_cell_angle_alpha                   90
_cell_angle_beta                    90
_cell_angle_gamma                   90
_cell_volume                        1691.907
_cell_formula_units_Z               4
_symmetry_space_group_name_H-M      'C 2 2 2'
_symmetry_Int_Tables_number         21
_refine_ls_R_factor_all             0
loop_
_symmetry_equiv_pos_site_id
_symmetry_equiv_pos_as_xyz
1 x,y,z
2 -x,-y,z
3 x,-y,-z
4 -x,y,-z
5 1/2+x,1/2+y,z
6 1/2-x,1/2-y,z
7 1/2+x,1/2-y,-z
8 1/2-x,1/2+y,-z
loop_
_atom_site_label
_atom_site_type_symbol
_atom_site_symmetry_multiplicity
_atom_site_fract_x
_atom_site_fract_y
_atom_site_fract_z
_atom_site_occupancy
O1 O 8 0.34580 0.18380 0.87060 1.0000
O2 O 8 0.38690 0.19920 0.36970 1.0000
O3 O 8 0.26500 0.12020 0.50280 1.0000
O4 O 8 0.15460 0.08690 0.86090 1.0000
O5 O 8 0.11310 0.10210 0.36230 1.0000
O6 O 8 0.09590 0.20150 0.03040 1.0000
O7 O 4 0.25000 0.25000 0.54590 1.0000
O8 O 4 0.20320 0.00000 0.50000 1.0000
O9 O 4 0.00000 0.09670 0.00000 1.0000
O10 O 4 0.00000 0.30610 0.00000 1.0000
Si1 Si 8 0.31210 0.18840 0.57150 1.0000
Si2 Si 8 0.18400 0.07720 0.55910 1.0000
Si3 Si 8 0.09130 0.12170 0.06130 1.0000
Si4 Si 8 0.09070 0.28100 0.06930 1.0000
Lr1 Lr 8 0.21770 0.19734 0.06712 1.0000
Lr2 Lr 4 0.00000 0.19751 0.50000 1.0000
Lr3 Lr 2 0.50000 0.00000 0.00000 1.0000
Lr4 Lr 2 0.50000 0.00000 0.50000 1.0000
Lr5 Lr 2 0.00000 0.00000 0.00000 1.0000
Lr6 Lr 2 0.00000 0.00000 0.50000 1.0000
loop_
_topos_bond_atom_site_label_1
_topos_bond_atom_site_label_2
_topos_bond_site_symmetry_1
_topos_bond_site_symmetry_2
_topos_bond_distance
_topos_bond_type
_topos_bond_multiplicity
O1 Si1 1_0_0_0 1_0_0_0 1.6210 V 8
O1 Si4 1_0_0_0 6_0_0_1 1.6190 V 8
O2 Si1 1_0_0_0 1_0_0_0 1.6190 V 8
O2 Si4 1_0_0_0 6_0_0_0 1.6200 V 8
O3 Si1 1_0_0_0 1_0_0_0 1.6190 V 8
O3 Si2 1_0_0_0 1_0_0_0 1.6190 V 8
O4 Si2 1_0_0_0 1_0_0_0 1.6200 V 8
O4 Si3 1_0_0_0 1_0_0_1 1.6190 V 8
O5 Si2 1_0_0_0 1_0_0_0 1.6190 V 8
O5 Si3 1_0_0_0 1_0_0_0 1.6200 V 8
O6 Si4 1_0_0_0 1_0_0_0 1.6190 V 8
O6 Si3 1_0_0_0 1_0_0_0 1.6200 V 8
O7 Si1 1_0_0_0 1_0_0_0 1.6160 V 8
O8 Si2 1_0_0_0 1_0_0_0 1.6180 V 8
O9 Si3 1_0_0_0 1_0_0_0 1.6190 V 8
O10 Si4 1_0_0_0 1_0_0_0 1.6190 V 8
Lr1 Lr1 1_0_0_0 6_0_0_0 2.3780 V 4
Lr3 Lr4 1_0_0_0 1_0_0_0 2.5400 V 4
Lr5 Lr6 1_0_0_0 1_0_0_0 2.5400 V 4
#End of data_85-TOPOS_GON-PPT1

data_86-TOPOS_GOO-PPT1
_audit_creation_date                2025-02-23
_audit_creation_method              ToposPro
_chemical_formula_structural        GOO-PPT1
_chemical_formula_sum               'Lr9 O16 Si8'
_citation_special_details
;
Space Group: C2221->C 2 2 21. File: GOO-PPT1.cif. 
;
_cell_length_a                      8.748
_cell_length_b                      11.039
_cell_length_c                      17.475
_cell_angle_alpha                   90
_cell_angle_beta                    90
_cell_angle_gamma                   90
_cell_volume                        1687.546
_cell_formula_units_Z               4
_symmetry_space_group_name_H-M      'C 2 2 21'
_symmetry_Int_Tables_number         20
_refine_ls_R_factor_all             0
loop_
_symmetry_equiv_pos_site_id
_symmetry_equiv_pos_as_xyz
1 x,y,z
2 -x,-y,1/2+z
3 x,-y,-z
4 -x,y,1/2-z
5 1/2+x,1/2+y,z
6 1/2-x,1/2-y,1/2+z
7 1/2+x,1/2-y,-z
8 1/2-x,1/2+y,1/2-z
loop_
_atom_site_label
_atom_site_type_symbol
_atom_site_symmetry_multiplicity
_atom_site_fract_x
_atom_site_fract_y
_atom_site_fract_z
_atom_site_occupancy
O1 O 8 0.71720 0.99400 0.34310 1.0000
O2 O 8 0.83820 0.05430 0.20800 1.0000
O3 O 8 0.64200 0.19450 0.27540 1.0000
O4 O 8 0.91810 0.17410 0.33200 1.0000
O5 O 8 0.86070 0.10120 0.53910 1.0000
O6 O 8 0.69260 0.24190 0.63010 1.0000
O7 O 8 0.95180 0.14070 0.67820 1.0000
O8 O 8 0.57590 0.43710 0.56350 1.0000
Si1 Si 8 0.78110 0.10230 0.29030 1.0000
Si2 Si 8 0.80230 0.12530 0.62520 1.0000
Si3 Si 8 0.58930 0.36120 0.64200 1.0000
Si4 Si 4 0.50000 0.27700 0.25000 1.0000
Si5 Si 4 0.96850 0.00000 0.50000 1.0000
Lr1 Lr 8 0.70040 0.19489 0.43501 1.0000
Lr2 Lr 8 0.00826 0.98140 0.30114 1.0000
Lr3 Lr 8 0.92012 0.37643 0.25448 1.0000
Lr4 Lr 4 0.00000 0.00123 0.25000 1.0000
Lr5 Lr 4 0.00000 0.35702 0.25000 1.0000
Lr6 Lr 4 0.65375 0.00000 0.00000 1.0000
loop_
_topos_bond_atom_site_label_1
_topos_bond_atom_site_label_2
_topos_bond_site_symmetry_1
_topos_bond_site_symmetry_2
_topos_bond_distance
_topos_bond_type
_topos_bond_multiplicity
O1 Si1 1_0_0_0 1_0_1_0 1.6100 V 8
O1 Si2 1_0_0_0 3_0_1_1 1.6110 V 8
O2 Si1 1_0_0_0 1_0_0_0 1.6120 V 8
O2 Si3 1_0_0_0 6_1_0_-1 1.6130 V 8
O3 Si4 1_0_0_0 1_0_0_0 1.6030 V 8
O3 Si1 1_0_0_0 1_0_0_0 1.6080 V 8
O4 Si1 1_0_0_0 1_0_0_0 1.6110 V 8
O4 Si3 1_0_0_0 7_0_0_1 1.6130 V 8
O5 Si2 1_0_0_0 1_0_0_0 1.6110 V 8
O5 Si5 1_0_0_0 1_0_0_0 1.6140 V 8
O6 Si2 1_0_0_0 1_0_0_0 1.6080 V 8
O6 Si3 1_0_0_0 1_0_0_0 1.6110 V 8
O7 Si2 1_0_0_0 1_0_0_0 1.6120 V 8
O7 Si4 1_0_0_0 6_1_0_0 1.6050 V 8
O8 Si3 1_0_0_0 1_0_0_0 1.6120 V 8
O8 Si5 1_0_0_0 5_-1_0_0 1.6110 V 8
Lr1 Lr6 1_0_0_0 6_1_0_0 3.7760 V 8
Lr1 Lr6 1_0_0_0 2_1_0_0 3.9390 V 8
Lr2 Lr4 1_0_0_0 1_0_1_0 0.9230 V 8
Lr3 Lr5 1_0_0_0 1_1_0_0 0.7350 V 8
Lr3 Lr6 1_0_0_0 6_1_0_0 4.5480 V 8
#End of data_86-TOPOS_GOO-PPT1

data_87-TOPOS_HEU-PPT1
_audit_creation_date                2025-02-23
_audit_creation_method              ToposPro
_chemical_formula_structural        HEU-PPT1
_chemical_formula_sum               'Lr2 O18 Si9'
_citation_special_details
;
Space Group: C2/M->C 2/m. File: HEU-PPT1.cif. 
;
_cell_length_a                      17.2599
_cell_length_b                      17.644
_cell_length_c                      7.401
_cell_angle_alpha                   90
_cell_angle_beta                    114.2605
_cell_angle_gamma                   90
_cell_volume                        2054.808
_cell_formula_units_Z               4
_symmetry_space_group_name_H-M      'C 2/m'
_symmetry_Int_Tables_number         12
_refine_ls_R_factor_all             0
loop_
_symmetry_equiv_pos_site_id
_symmetry_equiv_pos_as_xyz
1 x,y,z
2 -x,y,-z
3 -x,-y,-z
4 x,-y,z
5 1/2+x,1/2+y,z
6 1/2-x,1/2+y,-z
7 1/2-x,1/2-y,-z
8 1/2+x,1/2-y,z
loop_
_atom_site_label
_atom_site_type_symbol
_atom_site_symmetry_multiplicity
_atom_site_fract_x
_atom_site_fract_y
_atom_site_fract_z
_atom_site_occupancy
O1 O 8 0.91700 0.83750 0.89910 1.0000
O2 O 8 0.76460 0.89610 0.79180 1.0000
O3 O 8 0.81250 0.84280 0.52180 1.0000
O4 O 8 0.78240 0.74930 0.76220 1.0000
O5 O 8 0.87550 0.63350 0.16230 1.0000
O6 O 8 0.73030 0.62010 0.85040 1.0000
O7 O 8 0.87880 0.76970 0.30970 1.0000
O8 O 8 0.99010 0.73220 0.16680 1.0000
O9 O 4 0.80310 0.50000 0.06220 1.0000
O10 O 4 0.00000 0.67200 0.50000 1.0000
Si1 Si 8 0.81910 0.83140 0.74360 1.0000
Si2 Si 8 0.78600 0.58930 0.07080 1.0000
Si3 Si 8 0.79470 0.81070 0.30490 1.0000
Si4 Si 8 0.93590 0.70190 0.28460 1.0000
Si5 Si 4 0.00000 0.78490 0.00000 1.0000
Lr1 Lr 2 0.00000 0.50000 0.00000 1.0000
Lr2 Lr 4 0.75000 0.75000 0.00000 1.0000
Lr3 Lr 2 0.00000 0.00000 0.50000 1.0000
loop_
_topos_bond_atom_site_label_1
_topos_bond_atom_site_label_2
_topos_bond_site_symmetry_1
_topos_bond_site_symmetry_2
_topos_bond_distance
_topos_bond_type
_topos_bond_multiplicity
O1 Si1 1_0_0_0 1_0_0_0 1.6100 V 8
O1 Si5 1_0_0_0 1_1_0_1 1.6100 V 8
O2 Si1 1_0_0_0 1_0_0_0 1.6100 V 8
O2 Si2 1_0_0_0 7_1_1_1 1.6100 V 8
O3 Si3 1_0_0_0 1_0_0_0 1.6080 V 8
O3 Si1 1_0_0_0 1_0_0_0 1.6110 V 8
O4 Si1 1_0_0_0 1_0_0_0 1.6090 V 8
O4 Si3 1_0_0_0 7_1_1_1 1.6110 V 8
O5 Si4 1_0_0_0 1_0_0_0 1.6080 V 8
O5 Si2 1_0_0_0 1_0_0_0 1.6100 V 8
O6 Si3 1_0_0_0 7_1_1_1 1.6090 V 8
O6 Si2 1_0_0_0 1_0_0_1 1.6100 V 8
O7 Si4 1_0_0_0 1_0_0_0 1.6090 V 8
O7 Si3 1_0_0_0 1_0_0_0 1.6090 V 8
O8 Si4 1_0_0_0 1_0_0_0 1.6100 V 8
O8 Si5 1_0_0_0 1_1_0_0 1.6100 V 8
O9 Si2 1_0_0_0 1_0_0_0 1.6090 V 8
O10 Si4 1_0_0_0 1_-1_0_0 1.6110 V 8
Lr1 Lr1 1_0_0_0 1_0_0_1 7.4010 V 2
Lr1 Lr3 1_0_0_0 5_0_0_0 7.8690 V 4
Lr3 Lr3 1_0_0_0 1_0_0_-1 7.4010 V 2
#End of data_87-TOPOS_HEU-PPT1

data_88-TOPOS_-HOS-PPT1
_audit_creation_date                2025-02-23
_audit_creation_method              ToposPro
_chemical_formula_structural        -HOS-PPT1
_chemical_formula_sum               'Lr18 O71 Si34'
_citation_special_details
;
Space Group: CMMM->C m m m. File: -HOS-PPT1.cif. 
;
_cell_length_a                      14.1579
_cell_length_b                      51.0783
_cell_length_c                      12.8142
_cell_angle_alpha                   90
_cell_angle_beta                    90
_cell_angle_gamma                   90
_cell_volume                        9266.736
_cell_formula_units_Z               4
_symmetry_space_group_name_H-M      'C m m m'
_symmetry_Int_Tables_number         65
_refine_ls_R_factor_all             0
loop_
_symmetry_equiv_pos_site_id
_symmetry_equiv_pos_as_xyz
1 x,y,z
2 -x,-y,z
3 x,-y,-z
4 -x,y,-z
5 -x,-y,-z
6 x,y,-z
7 -x,y,z
8 x,-y,z
9 1/2+x,1/2+y,z
10 1/2-x,1/2-y,z
11 1/2+x,1/2-y,-z
12 1/2-x,1/2+y,-z
13 1/2-x,1/2-y,-z
14 1/2+x,1/2+y,-z
15 1/2-x,1/2+y,z
16 1/2+x,1/2-y,z
loop_
_atom_site_label
_atom_site_type_symbol
_atom_site_symmetry_multiplicity
_atom_site_fract_x
_atom_site_fract_y
_atom_site_fract_z
_atom_site_occupancy
O1 O 16 0.17544 0.04911 0.18597 1.0000
O2 O 16 0.32038 0.08138 0.18588 1.0000
O3 O 16 0.17487 0.09029 0.30700 1.0000
O4 O 16 0.24301 0.22342 0.19320 1.0000
O5 O 16 0.17373 0.18580 0.30735 1.0000
O6 O 16 0.15922 0.09615 0.10275 1.0000
O7 O 16 0.17592 0.32283 0.19266 1.0000
O8 O 16 0.11449 0.13790 0.34347 1.0000
O9 O 16 0.15865 0.18320 0.10251 1.0000
O10 O 16 0.13645 0.37067 0.13078 1.0000
O11 O 16 0.13450 0.25233 0.12422 1.0000
O12 O 8 0.12319 0.13953 0.00000 1.0000
O13 O 8 0.11120 0.03801 0.00000 1.0000
O14 O 8 0.11995 0.33127 0.00000 1.0000
O15 O 8 0.38959 0.09033 0.00000 1.0000
O16 O 8 0.14132 0.00000 0.13469 1.0000
O17 O 4 0.00000 0.17820 0.00000 1.0000
O18 O 4 0.00000 0.10083 0.00000 1.0000
O19 O 8 0.00000 0.17774 0.37226 1.0000
O20 O 8 0.00000 0.03270 0.16224 1.0000
O21 O 8 0.00000 0.09799 0.36986 1.0000
O22 O 8 0.00000 0.33631 0.15532 1.0000
O23 O 8 0.00000 0.40478 0.16304 1.0000
O24 O 8 0.14270 0.17024 0.50000 1.0000
O25 O 8 0.14107 0.10538 0.50000 1.0000
O26 O 4 0.25000 0.25000 0.00000 1.0000
Si1 Si 16 0.20708 0.07932 0.19476 1.0000
Si2 Si 16 0.10781 0.16793 0.38076 1.0000
Si3 Si 16 0.10707 0.02987 0.12123 1.0000
Si4 Si 16 0.10766 0.10782 0.38029 1.0000
Si5 Si 16 0.22452 0.19234 0.19805 1.0000
Si6 Si 16 0.39378 0.09906 0.12062 1.0000
Si7 Si 16 0.10810 0.34028 0.11967 1.0000
Si8 Si 8 0.11046 0.10823 0.00000 1.0000
Si9 Si 8 0.11048 0.17082 0.00000 1.0000
Si10 Si 8 0.25000 0.25000 0.12551 1.0000
Lr1 Lr 16 0.20671 0.13566 0.17427 1.0000
Lr2 Lr 8 0.26555 0.13399 0.00000 1.0000
Lr3 Lr 4 0.00000 0.06532 0.00000 1.0000
Lr4 Lr 4 0.00000 0.26806 0.00000 1.0000
Lr5 Lr 8 0.00000 0.13774 0.19231 1.0000
Lr6 Lr 8 0.00000 0.08131 0.17407 1.0000
Lr7 Lr 8 0.00000 0.23817 0.17034 1.0000
Lr8 Lr 4 0.00000 0.13788 0.50000 1.0000
Lr9 Lr 2 0.00000 0.50000 0.50000 1.0000
Lr10 Lr 2 0.00000 0.00000 0.00000 1.0000
Lr11 Lr 2 0.00000 0.00000 0.50000 1.0000
Lr12 Lr 2 0.50000 0.00000 0.00000 1.0000
Lr13 Lr 4 0.50000 0.12939 0.00000 1.0000
loop_
_topos_bond_atom_site_label_1
_topos_bond_atom_site_label_2
_topos_bond_site_symmetry_1
_topos_bond_site_symmetry_2
_topos_bond_distance
_topos_bond_type
_topos_bond_multiplicity
O1 Si3 1_0_0_0 1_0_0_0 1.6100 V 16
O1 Si1 1_0_0_0 1_0_0_0 1.6110 V 16
O2 Si6 1_0_0_0 1_0_0_0 1.6110 V 16
O2 Si1 1_0_0_0 1_0_0_0 1.6120 V 16
O3 Si4 1_0_0_0 1_0_0_0 1.6090 V 16
O3 Si1 1_0_0_0 1_0_0_0 1.6100 V 16
O4 Si5 1_0_0_0 1_0_0_0 1.6100 V 16
O4 Si10 1_0_0_0 1_0_0_0 1.6140 V 16
O5 Si2 1_0_0_0 1_0_0_0 1.6090 V 16
O5 Si5 1_0_0_0 1_0_0_0 1.6090 V 16
O6 Si1 1_0_0_0 1_0_0_0 1.6090 V 16
O6 Si8 1_0_0_0 1_0_0_0 1.6100 V 16
O7 Si7 1_0_0_0 1_0_0_0 1.6100 V 16
O7 Si5 1_0_0_0 10_0_0_0 1.6100 V 16
O8 Si2 1_0_0_0 1_0_0_0 1.6090 V 16
O8 Si4 1_0_0_0 1_0_0_0 1.6100 V 16
O9 Si5 1_0_0_0 1_0_0_0 1.6080 V 16
O9 Si9 1_0_0_0 1_0_0_0 1.6090 V 16
O10 Si7 1_0_0_0 1_0_0_0 1.6100 V 16
O10 Si6 1_0_0_0 10_0_0_0 1.6100 V 16
O11 Si10 1_0_0_0 1_0_0_0 1.6400 V 16
O12 Si9 1_0_0_0 1_0_0_0 1.6080 V 8
O12 Si8 1_0_0_0 1_0_0_0 1.6090 V 8
O13 Si3 1_0_0_0 1_0_0_0 1.6090 V 16
O14 Si7 1_0_0_0 1_0_0_0 1.6100 V 16
O15 Si6 1_0_0_0 1_0_0_0 1.6100 V 16
O16 Si3 1_0_0_0 1_0_0_0 1.6100 V 16
O17 Si9 1_0_0_0 1_0_0_0 1.6090 V 8
O18 Si8 1_0_0_0 1_0_0_0 1.6090 V 8
O19 Si2 1_0_0_0 1_0_0_0 1.6100 V 16
O20 Si3 1_0_0_0 1_0_0_0 1.6110 V 16
O21 Si4 1_0_0_0 1_0_0_0 1.6100 V 16
O22 Si7 1_0_0_0 1_0_0_0 1.6100 V 16
O23 Si6 1_0_0_0 10_0_0_0 1.6110 V 16
O24 Si2 1_0_0_0 1_0_0_0 1.6100 V 16
O25 Si4 1_0_0_0 1_0_0_0 1.6100 V 16
O26 Si10 1_0_0_0 1_0_0_0 1.6080 V 8
Lr1 Lr5 1_0_0_0 1_0_0_0 2.9380 V 16
Lr1 Lr2 1_0_0_0 1_0_0_0 2.3850 V 16
Lr3 Lr6 1_0_0_0 1_0_0_0 2.3750 V 8
Lr4 Lr7 1_0_0_0 1_0_0_0 2.6640 V 8
Lr5 Lr6 1_0_0_0 1_0_0_0 2.8920 V 8
Lr7 Lr9 1_0_0_0 1_0_0_0 14.0250 V 8
Lr9 Lr9 1_0_0_0 9_0_-1_0 26.5020 V 4
Lr9 Lr12 1_0_0_0 9_-1_0_1 6.4070 V 4
Lr9 Lr11 1_0_0_0 9_0_0_0 7.0790 V 4
#End of data_88-TOPOS_-HOS-PPT1

data_89-TOPOS_HZF-NT
_audit_creation_date                2025-02-23
_audit_creation_method              ToposPro
_chemical_formula_structural        HZF-NT
_chemical_formula_sum               'Lr1 O4 Si2'
_citation_special_details
;
Space Group: C2/C->C 2/c. File: HZF-NT.cif. 
;
_cell_length_a                      25.2644
_cell_length_b                      24.8715
_cell_length_c                      14.5262
_cell_angle_alpha                   90
_cell_angle_beta                    104.64
_cell_angle_gamma                   90
_cell_volume                        8831.384
_cell_formula_units_Z               48
_symmetry_space_group_name_H-M      'C 2/c'
_symmetry_Int_Tables_number         15
_refine_ls_R_factor_all             0
loop_
_symmetry_equiv_pos_site_id
_symmetry_equiv_pos_as_xyz
1 x,y,z
2 -x,y,1/2-z
3 -x,-y,-z
4 x,-y,1/2+z
5 1/2+x,1/2+y,z
6 1/2-x,1/2+y,1/2-z
7 1/2-x,1/2-y,-z
8 1/2+x,1/2-y,1/2+z
loop_
_atom_site_label
_atom_site_type_symbol
_atom_site_symmetry_multiplicity
_atom_site_fract_x
_atom_site_fract_y
_atom_site_fract_z
_atom_site_occupancy
O1 O 8 0.05373 0.24001 0.77869 1.0000
O2 O 8 0.58397 0.32232 0.60544 1.0000
O3 O 8 0.32883 0.38744 0.26778 1.0000
O4 O 8 0.19611 0.05648 0.06265 1.0000
O5 O 8 0.49684 0.33462 0.33903 1.0000
O6 O 8 0.39467 0.42595 0.88570 1.0000
O7 O 8 0.42949 0.41195 0.35885 1.0000
O8 O 8 0.52584 0.61216 0.18233 1.0000
O9 O 8 0.34902 0.47879 0.36014 1.0000
O10 O 8 0.45277 0.53741 0.18559 1.0000
O11 O 8 0.47204 0.43555 0.15900 1.0000
O12 O 8 0.38119 0.46409 0.20269 1.0000
O13 O 8 0.39577 0.48758 0.03366 1.0000
O14 O 8 0.51514 0.39013 0.49775 1.0000
O15 O 8 0.17605 0.15993 0.05938 1.0000
O16 O 8 0.34738 0.30200 0.17415 1.0000
O17 O 8 0.22287 0.37270 0.91522 1.0000
O18 O 8 0.16083 0.25336 0.13135 1.0000
O19 O 8 0.13913 0.30065 0.85731 1.0000
O20 O 8 0.24734 0.32267 0.18699 1.0000
O21 O 8 0.29297 0.38432 0.08208 1.0000
O22 O 8 0.10462 0.22754 0.95860 1.0000
O23 O 8 0.21567 0.28681 0.01335 1.0000
O24 O 8 0.23854 0.27837 0.84832 1.0000
Si1 Si 8 0.55756 0.38157 0.59979 1.0000
Si2 Si 8 0.36091 0.46973 0.92947 1.0000
Si3 Si 8 0.37225 0.43579 0.29730 1.0000
Si4 Si 8 0.49245 0.39312 0.38392 1.0000
Si5 Si 8 0.42531 0.48099 0.14501 1.0000
Si6 Si 8 0.11247 0.24154 0.85462 1.0000
Si7 Si 8 0.30418 0.34899 0.17799 1.0000
Si8 Si 8 0.13099 0.20491 0.06407 1.0000
Si9 Si 8 0.21433 0.11428 0.03125 1.0000
Si10 Si 8 0.22048 0.27203 0.12302 1.0000
Si11 Si 8 0.20282 0.31102 0.90727 1.0000
Si12 Si 4 0.50000 0.29735 0.25000 1.0000
Si13 Si 4 0.50000 0.57456 0.25000 1.0000
Lr1 Lr 8 0.59570 0.37636 0.38636 1.0000
Lr2 Lr 8 0.76953 0.29316 0.89554 1.0000
Lr3 Lr 8 0.20670 0.21397 0.97149 1.0000
Lr4 Lr 8 0.43471 0.08302 0.57360 1.0000
Lr5 Lr 4 0.50000 0.43646 0.25000 1.0000
Lr6 Lr 4 0.50000 0.50000 0.50000 1.0000
Lr7 Lr 4 0.00000 0.50000 0.00000 1.0000
Lr8 Lr 4 0.25000 0.25000 0.50000 1.0000
loop_
_topos_bond_atom_site_label_1
_topos_bond_atom_site_label_2
_topos_bond_site_symmetry_1
_topos_bond_site_symmetry_2
_topos_bond_distance
_topos_bond_type
_topos_bond_multiplicity
O1 Si6 1_0_0_0 1_0_0_0 1.6100 V 8
O1 Si12 1_0_0_0 7_0_0_1 1.6110 V 8
O2 Si1 1_0_0_0 1_0_0_0 1.6110 V 8
O2 Si8 1_0_0_0 8_0_0_0 1.6100 V 8
O3 Si7 1_0_0_0 1_0_0_0 1.6100 V 8
O3 Si3 1_0_0_0 1_0_0_0 1.6110 V 8
O4 Si9 1_0_0_0 1_0_0_0 1.6100 V 8
O4 Si2 1_0_0_0 7_0_0_1 1.6110 V 8
O5 Si12 1_0_0_0 1_0_0_0 1.6090 V 8
O5 Si4 1_0_0_0 1_0_0_0 1.6100 V 8
O6 Si2 1_0_0_0 1_0_0_0 1.6100 V 8
O6 Si1 1_0_0_0 2_1_0_1 1.6100 V 8
O7 Si3 1_0_0_0 1_0_0_0 1.6090 V 8
O7 Si4 1_0_0_0 1_0_0_0 1.6090 V 8
O8 Si13 1_0_0_0 1_0_0_0 1.6100 V 8
O8 Si1 1_0_0_0 4_0_1_-1 1.6090 V 8
O9 Si3 1_0_0_0 1_0_0_0 1.6100 V 8
O9 Si2 1_0_0_0 4_0_1_-1 1.6100 V 8
O10 Si13 1_0_0_0 1_0_0_0 1.6090 V 8
O10 Si5 1_0_0_0 1_0_0_0 1.6100 V 8
O11 Si5 1_0_0_0 1_0_0_0 1.6100 V 8
O11 Si4 1_0_0_0 2_1_0_0 1.6090 V 8
O12 Si3 1_0_0_0 1_0_0_0 1.6100 V 8
O12 Si5 1_0_0_0 1_0_0_0 1.6100 V 8
O13 Si5 1_0_0_0 1_0_0_0 1.6090 V 8
O13 Si2 1_0_0_0 1_0_0_-1 1.6090 V 8
O14 Si1 1_0_0_0 1_0_0_0 1.6090 V 8
O14 Si4 1_0_0_0 1_0_0_0 1.6090 V 8
O15 Si9 1_0_0_0 1_0_0_0 1.6100 V 8
O15 Si8 1_0_0_0 1_0_0_0 1.6100 V 8
O16 Si7 1_0_0_0 1_0_0_0 1.6100 V 8
O16 Si6 1_0_0_0 7_0_0_1 1.6100 V 8
O17 Si11 1_0_0_0 1_0_0_0 1.6110 V 8
O17 Si9 1_0_0_0 7_0_0_1 1.6130 V 8
O18 Si10 1_0_0_0 1_0_0_0 1.6100 V 8
O18 Si8 1_0_0_0 1_0_0_0 1.6130 V 8
O19 Si11 1_0_0_0 1_0_0_0 1.6100 V 8
O19 Si6 1_0_0_0 1_0_0_0 1.6130 V 8
O20 Si10 1_0_0_0 1_0_0_0 1.6100 V 8
O20 Si7 1_0_0_0 1_0_0_0 1.6130 V 8
O21 Si7 1_0_0_0 1_0_0_0 1.6110 V 8
O21 Si9 1_0_0_0 7_0_0_0 1.6100 V 8
O22 Si6 1_0_0_0 1_0_0_0 1.6100 V 8
O22 Si8 1_0_0_0 1_0_0_1 1.6100 V 8
O23 Si10 1_0_0_0 1_0_0_0 1.6090 V 8
O23 Si11 1_0_0_0 1_0_0_-1 1.6090 V 8
O24 Si11 1_0_0_0 1_0_0_0 1.6120 V 8
O24 Si10 1_0_0_0 7_0_0_1 1.6120 V 8
Lr2 Lr4 1_0_0_0 8_0_0_0 5.3040 V 8
Lr2 Lr8 1_0_0_0 2_1_0_1 2.0190 V 8
Lr3 Lr3 1_0_0_0 7_0_0_2 2.7870 V 4
Lr4 Lr7 1_0_0_0 6_0_-1_0 3.0030 V 8
Lr4 Lr4 1_0_0_0 2_1_0_1 5.3480 V 4
#End of data_89-TOPOS_HZF-NT

data_90-TOPOS_IFR-PPT1
_audit_creation_date                2025-02-23
_audit_creation_method              ToposPro
_chemical_formula_structural        IFR-PPT1
_chemical_formula_sum               'Lr3 O16 Si8'
_citation_special_details
;
Space Group: C2/M->C 2/m. File: IFR-PPT1.cif. 
;
_cell_length_a                      18.628
_cell_length_b                      13.436
_cell_length_c                      7.629
_cell_angle_alpha                   90
_cell_angle_beta                    102.322
_cell_angle_gamma                   90
_cell_volume                        1865.444
_cell_formula_units_Z               4
_symmetry_space_group_name_H-M      'C 2/m'
_symmetry_Int_Tables_number         12
_refine_ls_R_factor_all             0
loop_
_symmetry_equiv_pos_site_id
_symmetry_equiv_pos_as_xyz
1 x,y,z
2 -x,y,-z
3 -x,-y,-z
4 x,-y,z
5 1/2+x,1/2+y,z
6 1/2-x,1/2+y,-z
7 1/2-x,1/2-y,-z
8 1/2+x,1/2-y,z
loop_
_atom_site_label
_atom_site_type_symbol
_atom_site_symmetry_multiplicity
_atom_site_fract_x
_atom_site_fract_y
_atom_site_fract_z
_atom_site_occupancy
O1 O 8 0.06090 0.62570 0.84180 1.0000
O2 O 8 0.92370 0.68480 0.74450 1.0000
O3 O 8 0.18000 0.68340 0.07000 1.0000
O4 O 8 0.18500 0.64720 0.73340 1.0000
O5 O 8 0.68360 0.68410 0.32520 1.0000
O6 O 8 0.79000 0.62770 0.59140 1.0000
O7 O 4 0.95910 0.50000 0.68490 1.0000
O8 O 4 0.16950 0.50000 0.94880 1.0000
O9 O 4 0.73280 0.50000 0.33880 1.0000
O10 O 4 0.00000 0.64680 0.50000 1.0000
Si1 Si 8 0.83750 0.70300 0.73510 1.0000
Si2 Si 8 0.98590 0.61410 0.69280 1.0000
Si3 Si 8 0.14880 0.61430 0.89810 1.0000
Si4 Si 8 0.75530 0.61460 0.38050 1.0000
Lr1 Lr 4 0.11747 0.50000 0.44677 1.0000
Lr2 Lr 4 0.87500 0.00000 0.25000 1.0000
Lr3 Lr 2 0.00000 0.50000 0.00000 1.0000
Lr4 Lr 2 0.00000 0.00000 0.00000 1.0000
loop_
_topos_bond_atom_site_label_1
_topos_bond_atom_site_label_2
_topos_bond_site_symmetry_1
_topos_bond_site_symmetry_2
_topos_bond_distance
_topos_bond_type
_topos_bond_multiplicity
O1 Si3 1_0_0_0 1_0_0_0 1.6090 V 8
O1 Si2 1_0_0_0 1_-1_0_0 1.6100 V 8
O2 Si1 1_0_0_0 1_0_0_0 1.6110 V 8
O2 Si2 1_0_0_0 1_0_0_0 1.6110 V 8
O3 Si1 1_0_0_0 2_1_0_1 1.6100 V 8
O3 Si3 1_0_0_0 1_0_0_-1 1.6110 V 8
O4 Si3 1_0_0_0 1_0_0_0 1.6100 V 8
O4 Si4 1_0_0_0 2_1_0_1 1.6110 V 8
O5 Si4 1_0_0_0 1_0_0_0 1.6100 V 8
O5 Si1 1_0_0_0 7_1_1_1 1.6090 V 8
O6 Si4 1_0_0_0 1_0_0_0 1.6100 V 8
O6 Si1 1_0_0_0 1_0_0_0 1.6110 V 8
O7 Si2 1_0_0_0 1_0_0_0 1.6090 V 8
O8 Si3 1_0_0_0 1_0_0_0 1.6100 V 8
O9 Si4 1_0_0_0 1_0_0_0 1.6100 V 8
O10 Si2 1_0_0_0 1_-1_0_0 1.6090 V 8
Lr2 Lr4 1_0_0_0 1_1_0_0 3.3100 V 4
Lr2 Lr2 1_0_0_0 2_2_0_1 5.3530 V 2
#End of data_90-TOPOS_IFR-PPT1

data_91-TOPOS_IFT-PPT1
_audit_creation_date                2025-02-23
_audit_creation_method              ToposPro
_chemical_formula_structural        IFT-PPT1
_chemical_formula_sum               'Lr10 O77 Si38'
_citation_special_details
;
Space Group: CMCM->C m c m. File: IFT-PPT1.cif. 
;
_cell_length_a                      18.889
_cell_length_b                      22.8023
_cell_length_c                      29.0815
_cell_angle_alpha                   90
_cell_angle_beta                    90
_cell_angle_gamma                   90
_cell_volume                        12525.77
_cell_formula_units_Z               4
_symmetry_space_group_name_H-M      'C m c m'
_symmetry_Int_Tables_number         63
_refine_ls_R_factor_all             0
loop_
_symmetry_equiv_pos_site_id
_symmetry_equiv_pos_as_xyz
1 x,y,z
2 -x,-y,1/2+z
3 x,-y,-z
4 -x,y,1/2-z
5 -x,-y,-z
6 x,y,1/2-z
7 -x,y,z
8 x,-y,1/2+z
9 1/2+x,1/2+y,z
10 1/2-x,1/2-y,1/2+z
11 1/2+x,1/2-y,-z
12 1/2-x,1/2+y,1/2-z
13 1/2-x,1/2-y,-z
14 1/2+x,1/2+y,1/2-z
15 1/2-x,1/2+y,z
16 1/2+x,1/2-y,1/2+z
loop_
_atom_site_label
_atom_site_type_symbol
_atom_site_symmetry_multiplicity
_atom_site_fract_x
_atom_site_fract_y
_atom_site_fract_z
_atom_site_occupancy
O1 O 16 0.06963 0.29696 0.91809 1.0000
O2 O 16 0.16616 0.21799 0.93911 1.0000
O3 O 16 0.19975 0.32946 0.93594 1.0000
O4 O 16 0.12136 0.28863 0.00342 1.0000
O5 O 16 0.43122 0.24379 0.91596 1.0000
O6 O 16 0.30172 0.20353 0.92000 1.0000
O7 O 16 0.33386 0.30657 0.95444 1.0000
O8 O 16 0.20712 0.11876 0.90155 1.0000
O9 O 16 0.24581 0.14164 0.98464 1.0000
O10 O 16 0.20571 0.08369 0.05674 1.0000
O11 O 16 0.12656 0.07556 0.83822 1.0000
O12 O 16 0.07002 0.10167 0.91844 1.0000
O13 O 16 0.15271 0.01137 0.91082 1.0000
O14 O 16 0.06945 0.06451 0.04572 1.0000
O15 O 16 0.06903 0.17651 0.80887 1.0000
O16 O 8 0.00000 0.07829 0.80115 1.0000
O17 O 8 0.00000 0.26660 0.84134 1.0000
O18 O 8 0.00000 0.19981 0.91492 1.0000
O19 O 8 0.00000 0.15461 0.08027 1.0000
O20 O 8 0.00000 0.13707 0.99149 1.0000
O21 O 8 0.00000 0.21719 0.15595 1.0000
O22 O 8 0.16255 0.00000 0.00000 1.0000
O23 O 8 0.11183 0.09706 0.75000 1.0000
O24 O 4 0.00000 0.24271 0.75000 1.0000
Si1 Si 16 0.13825 0.28347 0.94925 1.0000
Si2 Si 16 0.36118 0.24031 0.94734 1.0000
Si3 Si 16 0.22974 0.17127 0.93549 1.0000
Si4 Si 16 0.22978 0.14738 0.03880 1.0000
Si5 Si 16 0.13950 0.07722 0.89291 1.0000
Si6 Si 16 0.14642 0.03435 0.04716 1.0000
Si7 Si 16 0.07795 0.10710 0.80023 1.0000
Si8 Si 8 0.00000 0.26649 0.89677 1.0000
Si9 Si 8 0.00000 0.22024 0.10062 1.0000
Si10 Si 8 0.00000 0.13474 0.93619 1.0000
Si11 Si 8 0.00000 0.10502 0.04084 1.0000
Si12 Si 8 0.00000 0.21726 0.80171 1.0000
Lr1 Lr 8 0.00000 0.14102 0.86014 1.0000
Lr2 Lr 8 0.00000 0.31134 0.00790 1.0000
Lr3 Lr 8 0.00000 0.03213 0.96911 1.0000
Lr4 Lr 4 0.00000 0.14382 0.75000 1.0000
Lr5 Lr 8 0.25000 0.25000 0.00000 1.0000
Lr6 Lr 4 0.50000 0.19993 0.75000 1.0000
loop_
_topos_bond_atom_site_label_1
_topos_bond_atom_site_label_2
_topos_bond_site_symmetry_1
_topos_bond_site_symmetry_2
_topos_bond_distance
_topos_bond_type
_topos_bond_multiplicity
O1 Si1 1_0_0_0 1_0_0_0 1.6110 V 16
O1 Si8 1_0_0_0 1_0_0_0 1.6120 V 16
O2 Si3 1_0_0_0 1_0_0_0 1.6090 V 16
O2 Si1 1_0_0_0 1_0_0_0 1.6110 V 16
O3 Si1 1_0_0_0 1_0_0_0 1.6120 V 16
O3 Si4 1_0_0_0 13_0_0_1 1.6090 V 16
O4 Si2 1_0_0_0 13_0_0_1 1.6110 V 16
O4 Si1 1_0_0_0 1_0_0_-1 1.6120 V 16
O5 Si2 1_0_0_0 1_0_0_0 1.6090 V 16
O5 Si9 1_0_0_0 11_0_0_1 1.6100 V 16
O6 Si3 1_0_0_0 1_0_0_0 1.6100 V 16
O6 Si2 1_0_0_0 1_0_0_0 1.6120 V 16
O7 Si2 1_0_0_0 1_0_0_0 1.6100 V 16
O7 Si4 1_0_0_0 13_0_0_1 1.6080 V 16
O8 Si3 1_0_0_0 1_0_0_0 1.6090 V 16
O8 Si5 1_0_0_0 1_0_0_0 1.6100 V 16
O9 Si3 1_0_0_0 1_0_0_0 1.6100 V 16
O9 Si4 1_0_0_0 1_0_0_1 1.6090 V 16
O10 Si4 1_0_0_0 1_0_0_0 1.6090 V 16
O10 Si6 1_0_0_0 1_0_0_0 1.6120 V 16
O11 Si7 1_0_0_0 1_0_0_0 1.6070 V 16
O11 Si5 1_0_0_0 1_0_0_0 1.6100 V 16
O12 Si10 1_0_0_0 1_0_0_0 1.6080 V 16
O12 Si5 1_0_0_0 1_0_0_0 1.6080 V 16
O13 Si5 1_0_0_0 1_0_0_0 1.6090 V 16
O13 Si6 1_0_0_0 3_0_0_1 1.6110 V 16
O14 Si6 1_0_0_0 1_0_0_0 1.6090 V 16
O14 Si11 1_0_0_0 1_0_0_0 1.6110 V 16
O15 Si7 1_0_0_0 1_0_0_0 1.6110 V 16
O15 Si12 1_0_0_0 1_0_0_0 1.6150 V 16
O16 Si7 1_0_0_0 1_0_0_0 1.6130 V 16
O17 Si12 1_0_0_0 1_0_0_0 1.6110 V 8
O17 Si8 1_0_0_0 1_0_0_0 1.6120 V 8
O18 Si10 1_0_0_0 1_0_0_0 1.6080 V 8
O18 Si8 1_0_0_0 1_0_0_0 1.6090 V 8
O19 Si9 1_0_0_0 1_0_0_0 1.6090 V 8
O19 Si11 1_0_0_0 1_0_0_0 1.6100 V 8
O20 Si10 1_0_0_0 1_0_0_0 1.6090 V 8
O20 Si11 1_0_0_0 1_0_0_1 1.6110 V 8
O21 Si9 1_0_0_0 1_0_0_0 1.6110 V 8
O22 Si6 1_0_0_0 1_0_0_0 1.6090 V 16
O23 Si7 1_0_0_0 1_0_0_0 1.6110 V 16
O24 Si12 1_0_0_0 1_0_0_0 1.6120 V 8
Lr2 Lr6 1_0_0_0 10_0_0_-1 7.0450 V 8
Lr2 Lr2 1_0_0_0 3_0_1_0 8.6160 V 4
Lr3 Lr3 1_0_0_0 3_0_0_2 2.3180 V 4
Lr6 Lr6 1_0_0_0 9_-1_0_0 14.8050 V 8
#End of data_91-TOPOS_IFT-PPT1

data_92-TOPOS_-IFU-PPT1
_audit_creation_date                2025-02-23
_audit_creation_method              ToposPro
_chemical_formula_structural        -IFU-PPT1
_chemical_formula_sum               'Lr7 O65 Si32'
_citation_special_details
;
Space Group: IMMM->I m m m. File: -IFU-PPT1.cif. 
;
_cell_length_a                      26.0358
_cell_length_b                      25.5895
_cell_length_c                      15.8248
_cell_angle_alpha                   90
_cell_angle_beta                    90
_cell_angle_gamma                   90
_cell_volume                        10543.16
_cell_formula_units_Z               4
_symmetry_space_group_name_H-M      'I m m m'
_symmetry_Int_Tables_number         71
_refine_ls_R_factor_all             0
loop_
_symmetry_equiv_pos_site_id
_symmetry_equiv_pos_as_xyz
1 x,y,z
2 -x,-y,z
3 x,-y,-z
4 -x,y,-z
5 -x,-y,-z
6 x,y,-z
7 -x,y,z
8 x,-y,z
9 1/2+x,1/2+y,1/2+z
10 1/2-x,1/2-y,1/2+z
11 1/2+x,1/2-y,1/2-z
12 1/2-x,1/2+y,1/2-z
13 1/2-x,1/2-y,1/2-z
14 1/2+x,1/2+y,1/2-z
15 1/2-x,1/2+y,1/2+z
16 1/2+x,1/2-y,1/2+z
loop_
_atom_site_label
_atom_site_type_symbol
_atom_site_symmetry_multiplicity
_atom_site_fract_x
_atom_site_fract_y
_atom_site_fract_z
_atom_site_occupancy
O1 O 16 0.40356 0.23980 0.15637 1.0000
O2 O 16 0.16323 0.34726 0.08327 1.0000
O3 O 16 0.18575 0.06928 0.41708 1.0000
O4 O 16 0.09612 0.07127 0.34260 1.0000
O5 O 16 0.17960 0.09907 0.25948 1.0000
O6 O 16 0.23027 0.16323 0.15986 1.0000
O7 O 16 0.30627 0.22605 0.11870 1.0000
O8 O 16 0.21074 0.25788 0.10402 1.0000
O9 O 16 0.42697 0.33435 0.10543 1.0000
O10 O 16 0.25401 0.15758 0.32108 1.0000
O11 O 16 0.15975 0.29936 0.23039 1.0000
O12 O 16 0.33333 0.29957 0.22602 1.0000
O13 O 8 0.06664 0.08665 0.50000 1.0000
O14 O 8 0.26777 0.09934 0.50000 1.0000
O15 O 8 0.24700 0.18713 0.00000 1.0000
O16 O 8 0.43433 0.25536 0.00000 1.0000
O17 O 8 0.13593 0.43214 0.00000 1.0000
O18 O 4 0.24073 0.00000 0.50000 1.0000
O19 O 8 0.00000 0.09556 0.37594 1.0000
O20 O 8 0.50000 0.26439 0.12537 1.0000
O21 O 8 0.16418 0.00000 0.29937 1.0000
Si1 Si 16 0.44131 0.27340 0.09680 1.0000
Si2 Si 16 0.20774 0.15502 0.25370 1.0000
Si3 Si 16 0.24858 0.20840 0.09578 1.0000
Si4 Si 16 0.05888 0.10466 0.40333 1.0000
Si5 Si 16 0.19501 0.31189 0.14928 1.0000
Si6 Si 16 0.15636 0.05966 0.32900 1.0000
Si7 Si 16 0.34582 0.24152 0.19279 1.0000
Si8 Si 8 0.22012 0.05933 0.50000 1.0000
Si9 Si 8 0.17323 0.38198 0.00000 1.0000
Lr1 Lr 4 0.50000 0.33437 0.00000 1.0000
Lr2 Lr 2 0.50000 0.00000 0.00000 1.0000
Lr3 Lr 2 0.50000 0.50000 0.50000 1.0000
Lr4 Lr 8 0.25000 0.25000 0.25000 1.0000
Lr5 Lr 4 0.50000 0.00000 0.21980 1.0000
Lr6 Lr 4 0.50000 0.00000 0.31757 1.0000
Lr7 Lr 2 0.00000 0.00000 0.50000 1.0000
Lr8 Lr 2 0.50000 0.00000 0.50000 1.0000
loop_
_topos_bond_atom_site_label_1
_topos_bond_atom_site_label_2
_topos_bond_site_symmetry_1
_topos_bond_site_symmetry_2
_topos_bond_distance
_topos_bond_type
_topos_bond_multiplicity
O1 Si1 1_0_0_0 1_0_0_0 1.6110 V 16
O1 Si7 1_0_0_0 1_0_0_0 1.6110 V 16
O2 Si9 1_0_0_0 1_0_0_0 1.6100 V 16
O2 Si5 1_0_0_0 1_0_0_0 1.6110 V 16
O3 Si8 1_0_0_0 1_0_0_0 1.6090 V 16
O3 Si6 1_0_0_0 1_0_0_0 1.6090 V 16
O4 Si4 1_0_0_0 1_0_0_0 1.6110 V 16
O4 Si6 1_0_0_0 1_0_0_0 1.6110 V 16
O5 Si6 1_0_0_0 1_0_0_0 1.6100 V 16
O5 Si2 1_0_0_0 1_0_0_0 1.6110 V 16
O6 Si3 1_0_0_0 1_0_0_0 1.6100 V 16
O6 Si2 1_0_0_0 1_0_0_0 1.6100 V 16
O7 Si3 1_0_0_0 1_0_0_0 1.6100 V 16
O7 Si7 1_0_0_0 1_0_0_0 1.6100 V 16
O8 Si3 1_0_0_0 1_0_0_0 1.6100 V 16
O8 Si5 1_0_0_0 1_0_0_0 1.6100 V 16
O9 Si1 1_0_0_0 1_0_0_0 1.6100 V 16
O9 Si4 1_0_0_0 13_0_0_0 1.6100 V 16
O10 Si2 1_0_0_0 1_0_0_0 1.6100 V 16
O10 Si5 1_0_0_0 13_0_0_0 1.6100 V 16
O11 Si5 1_0_0_0 1_0_0_0 1.6100 V 16
O11 Si7 1_0_0_0 13_0_0_0 1.6100 V 16
O12 Si7 1_0_0_0 1_0_0_0 1.6090 V 16
O12 Si2 1_0_0_0 13_0_0_0 1.6110 V 16
O13 Si4 1_0_0_0 1_0_0_0 1.6100 V 16
O14 Si8 1_0_0_0 1_0_0_0 1.6090 V 8
O14 Si9 1_0_0_0 10_0_0_0 1.6090 V 8
O15 Si3 1_0_0_0 1_0_0_0 1.6110 V 16
O16 Si1 1_0_0_0 1_0_0_0 1.6100 V 16
O17 Si9 1_0_0_0 1_0_0_0 1.6100 V 8
O18 Si8 1_0_0_0 1_0_0_0 1.6100 V 8
O19 Si4 1_0_0_0 1_0_0_0 1.6100 V 16
O20 Si1 1_0_0_0 1_0_0_0 1.6100 V 16
O21 Si6 1_0_0_0 1_0_0_0 1.6100 V 16
Lr2 Lr5 1_0_0_0 1_0_0_0 3.4780 V 4
Lr2 Lr3 1_0_0_0 9_0_-1_-1 13.0180 V 4
Lr3 Lr8 1_0_0_0 1_0_0_0 12.7950 V 4
Lr3 Lr7 1_0_0_0 9_0_0_0 7.9120 V 4
Lr5 Lr6 1_0_0_0 1_0_0_0 1.5470 V 4
Lr6 Lr8 1_0_0_0 1_0_0_0 2.8870 V 4
#End of data_92-TOPOS_-IFU-PPT1

data_93-TOPOS_IFW-PPT1
_audit_creation_date                2025-02-23
_audit_creation_method              ToposPro
_chemical_formula_structural        IFW-PPT1
_chemical_formula_sum               'Lr1 O16 Si8'
_citation_special_details
;
Space Group: C2/M->C 2/m. File: IFW-PPT1.cif. 
;
_cell_length_a                      21.6651
_cell_length_b                      18.2308
_cell_length_c                      12.4847
_cell_angle_alpha                   90
_cell_angle_beta                    124.7398
_cell_angle_gamma                   90
_cell_volume                        4052.131
_cell_formula_units_Z               8
_symmetry_space_group_name_H-M      'C 2/m'
_symmetry_Int_Tables_number         12
_refine_ls_R_factor_all             0
loop_
_symmetry_equiv_pos_site_id
_symmetry_equiv_pos_as_xyz
1 x,y,z
2 -x,y,-z
3 -x,-y,-z
4 x,-y,z
5 1/2+x,1/2+y,z
6 1/2-x,1/2+y,-z
7 1/2-x,1/2-y,-z
8 1/2+x,1/2-y,z
loop_
_atom_site_label
_atom_site_type_symbol
_atom_site_symmetry_multiplicity
_atom_site_fract_x
_atom_site_fract_y
_atom_site_fract_z
_atom_site_occupancy
O1 O 8 0.59814 0.68721 0.44932 1.0000
O2 O 8 0.49436 0.78474 0.30034 1.0000
O3 O 8 0.60350 0.81925 0.53870 1.0000
O4 O 8 0.59458 0.84177 0.93408 1.0000
O5 O 8 0.52711 0.92792 0.72707 1.0000
O6 O 8 0.63612 0.83830 0.77504 1.0000
O7 O 8 0.60761 0.92798 0.11422 1.0000
O8 O 8 0.63884 0.78692 0.16261 1.0000
O9 O 8 0.68962 0.92826 0.68419 1.0000
O10 O 8 0.74049 0.79318 0.74256 1.0000
O11 O 8 0.67288 0.68680 0.34082 1.0000
O12 O 8 0.17796 0.07202 0.47423 1.0000
O13 O 8 0.24588 0.19362 0.59562 1.0000
O14 O 4 0.58350 0.00000 0.47415 1.0000
O15 O 4 0.57099 0.00000 0.25257 1.0000
O16 O 4 0.72339 0.00000 0.54319 1.0000
O17 O 4 0.71134 0.00000 0.32238 1.0000
O18 O 4 0.50000 0.72681 0.50000 1.0000
O19 O 4 0.50000 0.82881 0.00000 1.0000
Si1 Si 8 0.17344 0.16016 0.46435 1.0000
Si2 Si 8 0.54867 0.75392 0.44687 1.0000
Si3 Si 8 0.70627 0.74646 0.29150 1.0000
Si4 Si 8 0.56524 0.84896 0.78359 1.0000
Si5 Si 8 0.58564 0.84675 0.05330 1.0000
Si6 Si 8 0.66746 0.84416 0.68545 1.0000
Si7 Si 4 0.67049 0.00000 0.59525 1.0000
Si8 Si 4 0.62430 0.00000 0.20132 1.0000
Si9 Si 4 0.23021 0.00000 0.52144 1.0000
Si10 Si 4 0.52494 0.00000 0.31791 1.0000
Lr1 Lr 4 0.51173 0.00000 0.91659 1.0000
Lr2 Lr 2 0.00000 0.00000 0.00000 1.0000
Lr3 Lr 2 0.50000 0.00000 0.50000 1.0000
loop_
_topos_bond_atom_site_label_1
_topos_bond_atom_site_label_2
_topos_bond_site_symmetry_1
_topos_bond_site_symmetry_2
_topos_bond_distance
_topos_bond_type
_topos_bond_multiplicity
O1 Si2 1_0_0_0 1_0_0_0 1.6100 V 8
O1 Si1 1_0_0_0 5_0_0_0 1.6100 V 8
O2 Si2 1_0_0_0 1_0_0_0 1.6100 V 8
O2 Si4 1_0_0_0 2_1_0_1 1.6110 V 8
O3 Si6 1_0_0_0 1_0_0_0 1.6090 V 8
O3 Si2 1_0_0_0 1_0_0_0 1.6100 V 8
O4 Si4 1_0_0_0 1_0_0_0 1.6090 V 8
O4 Si5 1_0_0_0 1_0_0_1 1.6090 V 8
O5 Si4 1_0_0_0 1_0_0_0 1.6090 V 8
O5 Si10 1_0_0_0 2_1_1_1 1.6100 V 8
O6 Si6 1_0_0_0 1_0_0_0 1.6090 V 8
O6 Si4 1_0_0_0 1_0_0_0 1.6110 V 8
O7 Si5 1_0_0_0 1_0_0_0 1.6080 V 8
O7 Si8 1_0_0_0 1_0_1_0 1.6090 V 8
O8 Si5 1_0_0_0 1_0_0_0 1.6090 V 8
O8 Si3 1_0_0_0 1_0_0_0 1.6090 V 8
O9 Si6 1_0_0_0 1_0_0_0 1.6090 V 8
O9 Si7 1_0_0_0 1_0_1_0 1.6100 V 8
O10 Si6 1_0_0_0 1_0_0_0 1.6090 V 8
O10 Si3 1_0_0_0 7_1_1_1 1.6100 V 8
O11 Si3 1_0_0_0 1_0_0_0 1.6100 V 8
O11 Si1 1_0_0_0 5_0_0_0 1.6100 V 8
O12 Si9 1_0_0_0 1_0_0_0 1.6100 V 8
O12 Si1 1_0_0_0 1_0_0_0 1.6100 V 8
O13 Si1 1_0_0_0 1_0_0_0 1.6090 V 8
O13 Si3 1_0_0_0 3_1_1_1 1.6090 V 8
O14 Si7 1_0_0_0 1_0_0_0 1.6090 V 4
O14 Si10 1_0_0_0 1_0_0_0 1.6110 V 4
O15 Si8 1_0_0_0 1_0_0_0 1.6080 V 4
O15 Si10 1_0_0_0 1_0_0_0 1.6090 V 4
O16 Si7 1_0_0_0 1_0_0_0 1.6080 V 4
O16 Si9 1_0_0_0 2_1_0_1 1.6080 V 4
O17 Si8 1_0_0_0 1_0_0_0 1.6100 V 4
O17 Si9 1_0_0_0 2_1_0_1 1.6100 V 4
O18 Si2 1_0_0_0 1_0_0_0 1.6100 V 8
O19 Si5 1_0_0_0 1_0_0_0 1.6080 V 8
Lr1 Lr1 1_0_0_0 2_1_0_2 2.4090 V 2
Lr2 Lr2 1_0_0_0 5_-1_-1_0 14.1570 V 4
Lr2 Lr2 1_0_0_0 1_0_0_-1 12.4850 V 2
#End of data_93-TOPOS_IFW-PPT1

data_94-TOPOS_IFY-PPT1
_audit_creation_date                2025-02-23
_audit_creation_method              ToposPro
_chemical_formula_structural        IFY-PPT1
_chemical_formula_sum               'Lr1 O12 Si6'
_citation_special_details
;
Space Group: P4/MBM->P 4/m b m. File: IFY-PPT1.cif. 
;
_cell_length_a                      15.1512
_cell_length_b                      15.1512
_cell_length_c                      11.848
_cell_angle_alpha                   90
_cell_angle_beta                    90
_cell_angle_gamma                   90
_cell_volume                        2719.813
_cell_formula_units_Z               8
_symmetry_space_group_name_H-M      'P 4/m b m'
_symmetry_Int_Tables_number         127
_refine_ls_R_factor_all             0
loop_
_symmetry_equiv_pos_site_id
_symmetry_equiv_pos_as_xyz
1 x,y,z
2 -x,-y,z
3 1/2+x,1/2-y,-z
4 1/2-x,1/2+y,-z
5 1/2-y,1/2-x,-z
6 1/2+y,1/2+x,-z
7 y,-x,z
8 -y,x,z
9 -x,-y,-z
10 x,y,-z
11 1/2-x,1/2+y,z
12 1/2+x,1/2-y,z
13 1/2+y,1/2+x,z
14 1/2-y,1/2-x,z
15 -y,x,-z
16 y,-x,-z
loop_
_atom_site_label
_atom_site_type_symbol
_atom_site_symmetry_multiplicity
_atom_site_fract_x
_atom_site_fract_y
_atom_site_fract_z
_atom_site_occupancy
O1 O 16 0.12203 0.81451 0.11136 1.0000
O2 O 16 0.03776 0.76969 0.29469 1.0000
O3 O 16 0.02880 0.66949 0.11157 1.0000
O4 O 16 0.09964 0.92834 0.33986 1.0000
O5 O 8 0.07136 0.22106 0.00000 1.0000
O6 O 8 0.17593 0.67593 0.22718 1.0000
O7 O 4 0.10984 0.39016 0.00000 1.0000
O8 O 4 0.23872 0.26128 0.00000 1.0000
O9 O 8 0.02738 0.83236 0.50000 1.0000
Si1 Si 16 0.09107 0.73201 0.18749 1.0000
Si2 Si 16 0.02320 0.85792 0.36828 1.0000
Si3 Si 8 0.03087 0.31941 0.00000 1.0000
Si4 Si 8 0.16973 0.18076 0.00000 1.0000
Lr1 Lr 2 0.00000 0.50000 0.00000 1.0000
Lr2 Lr 2 0.50000 0.00000 0.50000 1.0000
Lr3 Lr 2 0.00000 0.00000 0.00000 1.0000
Lr4 Lr 2 0.00000 0.00000 0.50000 1.0000
loop_
_topos_bond_atom_site_label_1
_topos_bond_atom_site_label_2
_topos_bond_site_symmetry_1
_topos_bond_site_symmetry_2
_topos_bond_distance
_topos_bond_type
_topos_bond_multiplicity
O1 Si1 1_0_0_0 1_0_0_0 1.6110 V 16
O1 Si4 1_0_0_0 7_0_1_0 1.6090 V 16
O2 Si1 1_0_0_0 1_0_0_0 1.6100 V 16
O2 Si2 1_0_0_0 1_0_0_0 1.6110 V 16
O3 Si1 1_0_0_0 1_0_0_0 1.6110 V 16
O3 Si3 1_0_0_0 2_0_1_0 1.6100 V 16
O4 Si2 1_0_0_0 1_0_0_0 1.6100 V 16
O4 Si2 1_0_0_0 8_1_1_0 1.6100 V 16
O5 Si4 1_0_0_0 1_0_0_0 1.6110 V 8
O5 Si3 1_0_0_0 1_0_0_0 1.6110 V 8
O6 Si1 1_0_0_0 1_0_0_0 1.6110 V 16
O7 Si3 1_0_0_0 1_0_0_0 1.6060 V 8
O8 Si4 1_0_0_0 1_0_0_0 1.6070 V 8
O9 Si2 1_0_0_0 1_0_0_0 1.6090 V 16
Lr1 Lr2 1_0_0_0 3_-1_0_0 5.9240 V 4
Lr2 Lr2 1_0_0_0 3_0_-1_1 10.7140 V 4
#End of data_94-TOPOS_IFY-PPT1

data_95-TOPOS_IHW-PPT1
_audit_creation_date                2025-02-23
_audit_creation_method              ToposPro
_chemical_formula_structural        IHW-PPT1
_chemical_formula_sum               'Lr11 O56 Si28'
_citation_special_details
;
Space Group: CMCA->C m c a. File: IHW-PPT1.cif. 
;
_cell_length_a                      13.747
_cell_length_b                      24.069
_cell_length_c                      18.329
_cell_angle_alpha                   90
_cell_angle_beta                    90
_cell_angle_gamma                   90
_cell_volume                        6064.636
_cell_formula_units_Z               4
_symmetry_space_group_name_H-M      'C m c a'
_symmetry_Int_Tables_number         64
_refine_ls_R_factor_all             0
loop_
_symmetry_equiv_pos_site_id
_symmetry_equiv_pos_as_xyz
1 x,y,z
2 1/2-x,-y,1/2+z
3 x,-y,-z
4 1/2-x,y,1/2-z
5 -x,-y,-z
6 1/2+x,y,1/2-z
7 -x,y,z
8 1/2+x,-y,1/2+z
9 1/2+x,1/2+y,z
10 -x,1/2-y,1/2+z
11 1/2+x,1/2-y,-z
12 -x,1/2+y,1/2-z
13 1/2-x,1/2-y,-z
14 x,1/2+y,1/2-z
15 1/2-x,1/2+y,z
16 x,1/2-y,1/2+z
loop_
_atom_site_label
_atom_site_type_symbol
_atom_site_symmetry_multiplicity
_atom_site_fract_x
_atom_site_fract_y
_atom_site_fract_z
_atom_site_occupancy
O1 O 16 0.63200 0.50990 0.35630 1.0000
O2 O 16 0.67510 0.41390 0.41330 1.0000
O3 O 16 0.74150 0.59750 0.37490 1.0000
O4 O 16 0.59580 0.60110 0.28310 1.0000
O5 O 16 0.77380 0.65040 0.49890 1.0000
O6 O 16 0.74270 0.70740 0.37860 1.0000
O7 O 16 0.90460 0.65030 0.39700 1.0000
O8 O 16 0.73560 0.68450 0.63200 1.0000
O9 O 16 0.59550 0.67670 0.53340 1.0000
O10 O 16 0.59620 0.76850 0.33660 1.0000
O11 O 8 0.64730 0.50000 0.50000 1.0000
O12 O 8 0.50000 0.45470 0.43080 1.0000
O13 O 8 0.50000 0.75350 0.46020 1.0000
O14 O 8 0.50000 0.75430 0.60370 1.0000
O15 O 8 0.50000 0.67630 0.36070 1.0000
O16 O 8 0.50000 0.68160 0.21940 1.0000
O17 O 8 0.75000 0.54250 0.25000 1.0000
O18 O 8 0.75000 0.75450 0.25000 1.0000
Si1 Si 16 0.61370 0.47010 0.42560 1.0000
Si2 Si 16 0.68070 0.56240 0.31580 1.0000
Si3 Si 16 0.78930 0.65160 0.41190 1.0000
Si4 Si 16 0.69470 0.64970 0.56360 1.0000
Si5 Si 16 0.71280 0.76180 0.33260 1.0000
Si6 Si 8 0.50000 0.71530 0.53240 1.0000
Si7 Si 8 0.50000 0.74260 0.37350 1.0000
Si8 Si 8 0.50000 0.63930 0.28740 1.0000
Si9 Si 8 0.00000 0.68230 0.36840 1.0000
Lr1 Lr 16 0.66667 0.66842 0.25472 1.0000
Lr2 Lr 16 0.83333 0.74716 0.49583 1.0000
Lr3 Lr 8 0.50000 0.37679 0.57059 1.0000
Lr4 Lr 4 0.50000 0.50000 0.00000 1.0000
loop_
_topos_bond_atom_site_label_1
_topos_bond_atom_site_label_2
_topos_bond_site_symmetry_1
_topos_bond_site_symmetry_2
_topos_bond_distance
_topos_bond_type
_topos_bond_multiplicity
O1 Si1 1_0_0_0 1_0_0_0 1.6110 V 16
O1 Si2 1_0_0_0 1_0_0_0 1.6110 V 16
O2 Si1 1_0_0_0 1_0_0_0 1.6100 V 16
O2 Si4 1_0_0_0 3_0_1_1 1.6110 V 16
O3 Si2 1_0_0_0 1_0_0_0 1.6080 V 16
O3 Si3 1_0_0_0 1_0_0_0 1.6080 V 16
O4 Si8 1_0_0_0 1_0_0_0 1.6080 V 16
O4 Si2 1_0_0_0 1_0_0_0 1.6090 V 16
O5 Si4 1_0_0_0 1_0_0_0 1.6090 V 16
O5 Si3 1_0_0_0 1_0_0_0 1.6090 V 16
O6 Si3 1_0_0_0 1_0_0_0 1.6080 V 16
O6 Si5 1_0_0_0 1_0_0_0 1.6110 V 16
O7 Si3 1_0_0_0 1_0_0_0 1.6090 V 16
O7 Si9 1_0_0_0 1_1_0_0 1.6090 V 16
O8 Si4 1_0_0_0 1_0_0_0 1.6090 V 16
O8 Si5 1_0_0_0 13_1_1_1 1.6110 V 16
O9 Si6 1_0_0_0 1_0_0_0 1.6080 V 16
O9 Si4 1_0_0_0 1_0_0_0 1.6090 V 16
O10 Si7 1_0_0_0 1_0_0_0 1.6110 V 16
O10 Si5 1_0_0_0 1_0_0_0 1.6130 V 16
O11 Si1 1_0_0_0 1_0_0_0 1.6100 V 16
O12 Si1 1_0_0_0 1_0_0_0 1.6090 V 16
O13 Si7 1_0_0_0 1_0_0_0 1.6110 V 8
O13 Si6 1_0_0_0 1_0_0_0 1.6110 V 8
O14 Si6 1_0_0_0 1_0_0_0 1.6090 V 8
O14 Si9 1_0_0_0 11_0_1_1 1.6090 V 8
O15 Si8 1_0_0_0 1_0_0_0 1.6120 V 8
O15 Si7 1_0_0_0 1_0_0_0 1.6130 V 8
O16 Si8 1_0_0_0 1_0_0_0 1.6090 V 8
O16 Si9 1_0_0_0 4_0_0_0 1.6090 V 8
O17 Si2 1_0_0_0 1_0_0_0 1.6100 V 16
O18 Si5 1_0_0_0 1_0_0_0 1.6080 V 16
Lr1 Lr1 1_0_0_0 4_1_0_0 2.2980 V 8
Lr2 Lr2 1_0_0_0 13_1_1_1 2.3000 V 8
Lr4 Lr4 1_0_0_0 2_1_1_0 11.4560 V 8
#End of data_95-TOPOS_IHW-PPT1

data_96-TOPOS_IMF-PPT1
_audit_creation_date                2025-02-23
_audit_creation_method              ToposPro
_chemical_formula_structural        IMF-PPT1
_chemical_formula_sum               'Lr37 O144 Si72'
_citation_special_details
;
Space Group: CMCM->C m c m. File: IMF-PPT1.cif. 
;
_cell_length_a                      14.296
_cell_length_b                      56.788
_cell_length_c                      20.29
_cell_angle_alpha                   90
_cell_angle_beta                    90
_cell_angle_gamma                   90
_cell_volume                        16472.26
_cell_formula_units_Z               4
_symmetry_space_group_name_H-M      'C m c m'
_symmetry_Int_Tables_number         63
_refine_ls_R_factor_all             0
loop_
_symmetry_equiv_pos_site_id
_symmetry_equiv_pos_as_xyz
1 x,y,z
2 -x,-y,1/2+z
3 x,-y,-z
4 -x,y,1/2-z
5 -x,-y,-z
6 x,y,1/2-z
7 -x,y,z
8 x,-y,1/2+z
9 1/2+x,1/2+y,z
10 1/2-x,1/2-y,1/2+z
11 1/2+x,1/2-y,-z
12 1/2-x,1/2+y,1/2-z
13 1/2-x,1/2-y,-z
14 1/2+x,1/2+y,1/2-z
15 1/2-x,1/2+y,z
16 1/2+x,1/2-y,1/2+z
loop_
_atom_site_label
_atom_site_type_symbol
_atom_site_symmetry_multiplicity
_atom_site_fract_x
_atom_site_fract_y
_atom_site_fract_z
_atom_site_occupancy
O1 O 16 0.59220 0.43450 0.55560 1.0000
O2 O 16 0.40810 0.36560 0.66010 1.0000
O3 O 16 0.59210 0.30680 0.65870 1.0000
O4 O 16 0.59150 0.23780 0.94510 1.0000
O5 O 16 0.40810 0.11060 0.66360 1.0000
O6 O 16 0.59150 0.03310 0.66190 1.0000
O7 O 16 0.22710 0.03460 0.04830 1.0000
O8 O 16 0.19690 0.06370 0.94940 1.0000
O9 O 16 0.26820 0.07980 0.05970 1.0000
O10 O 16 0.23290 0.16350 0.14800 1.0000
O11 O 16 0.25870 0.11790 0.13200 1.0000
O12 O 16 0.26660 0.20840 0.16110 1.0000
O13 O 16 0.19380 0.19230 0.05090 1.0000
O14 O 16 0.23540 0.29120 0.05880 1.0000
O15 O 16 0.23670 0.25250 0.12910 1.0000
O16 O 16 0.25710 0.37350 0.12580 1.0000
O17 O 16 0.23440 0.41810 0.15950 1.0000
O18 O 16 0.27330 0.46350 0.15350 1.0000
O19 O 16 0.19290 0.50400 0.12860 1.0000
O20 O 16 0.40840 0.03460 0.06340 1.0000
O21 O 16 0.40740 0.11060 0.05950 1.0000
O22 O 16 0.24710 0.12090 0.00280 1.0000
O23 O 16 0.40800 0.23830 0.15620 1.0000
O24 O 16 0.40790 0.30750 0.05670 1.0000
O25 O 16 0.26440 0.33650 0.04690 1.0000
O26 O 16 0.40760 0.36460 0.05420 1.0000
O27 O 16 0.40830 0.43270 0.15660 1.0000
O28 O 8 0.50000 0.40000 0.49840 1.0000
O29 O 8 0.50000 0.40410 0.62770 1.0000
O30 O 8 0.50000 0.26820 0.62830 1.0000
O31 O 8 0.50000 0.27270 0.00070 1.0000
O32 O 8 0.50000 0.07190 0.63170 1.0000
O33 O 8 0.50000 0.10860 0.55240 1.0000
O34 O 8 0.50000 0.03580 0.55000 1.0000
O35 O 8 0.50000 0.07250 0.02860 1.0000
O36 O 8 0.50000 0.27720 0.12970 1.0000
O37 O 8 0.50000 0.39360 0.13000 1.0000
O38 O 4 0.50000 0.38950 0.75000 1.0000
O39 O 4 0.50000 0.28370 0.75000 1.0000
O40 O 8 0.22520 0.13480 0.25000 1.0000
O41 O 8 0.22730 0.38510 0.25000 1.0000
O42 O 8 0.19780 0.48790 0.25000 1.0000
O43 O 8 0.28230 0.24180 0.25000 1.0000
O44 O 8 0.25000 0.25000 0.00000 1.0000
O45 O 8 0.32840 0.00000 0.00000 1.0000
O46 O 4 0.50000 0.26040 0.25000 1.0000
O47 O 4 0.50000 0.41030 0.25000 1.0000
Si1 Si 16 0.19640 0.06100 0.02830 1.0000
Si2 Si 16 0.19580 0.18940 0.12970 1.0000
Si3 Si 16 0.20360 0.26400 0.06050 1.0000
Si4 Si 16 0.31700 0.01810 0.06030 1.0000
Si5 Si 16 0.30380 0.31080 0.02790 1.0000
Si6 Si 16 0.29510 0.36360 0.05650 1.0000
Si7 Si 16 0.30420 0.43760 0.12970 1.0000
Si8 Si 16 0.20320 0.39130 0.17440 1.0000
Si9 Si 16 0.18840 0.48070 0.17360 1.0000
Si10 Si 16 0.29560 0.10720 0.06330 1.0000
Si11 Si 16 0.29890 0.23510 0.17380 1.0000
Si12 Si 16 0.20230 0.13760 0.17280 1.0000
Si13 Si 8 0.50000 0.41830 0.55900 1.0000
Si14 Si 8 0.50000 0.25420 0.94070 1.0000
Si15 Si 8 0.50000 0.29120 0.43920 1.0000
Si16 Si 8 0.50000 0.38070 0.05950 1.0000
Si17 Si 8 0.50000 0.41740 0.17330 1.0000
Si18 Si 8 0.50000 0.29140 0.67370 1.0000
Si19 Si 8 0.50000 0.38120 0.67420 1.0000
Si20 Si 8 0.50000 0.10020 0.62820 1.0000
Si21 Si 8 0.50000 0.04360 0.62620 1.0000
Si22 Si 8 0.50000 0.04420 0.02580 1.0000
Si23 Si 8 0.50000 0.10070 0.02380 1.0000
Si24 Si 8 0.50000 0.25350 0.17310 1.0000
Lr1 Lr 16 0.65541 0.06531 0.55395 1.0000
Lr2 Lr 16 0.14869 0.09491 0.94465 1.0000
Lr3 Lr 16 0.14886 0.22211 0.05598 1.0000
Lr4 Lr 8 0.50000 0.20505 0.05294 1.0000
Lr5 Lr 8 0.50000 0.00913 0.94740 1.0000
Lr6 Lr 8 0.32923 0.30136 0.25000 1.0000
Lr7 Lr 8 0.18899 0.07216 0.25000 1.0000
Lr8 Lr 8 0.17425 0.19268 0.25000 1.0000
Lr9 Lr 8 0.29895 0.43175 0.25000 1.0000
Lr10 Lr 4 0.50000 0.16928 0.25000 1.0000
Lr11 Lr 4 0.50000 0.05465 0.25000 1.0000
Lr12 Lr 4 0.50000 0.36245 0.25000 1.0000
Lr13 Lr 4 0.50000 0.51025 0.25000 1.0000
Lr14 Lr 4 0.00000 0.16357 0.25000 1.0000
Lr15 Lr 4 0.00000 0.29084 0.25000 1.0000
Lr16 Lr 4 0.00000 0.43442 0.25000 1.0000
Lr17 Lr 8 0.00000 0.14581 0.05363 1.0000
Lr18 Lr 8 0.00000 0.02283 0.94754 1.0000
Lr19 Lr 8 0.00000 0.34538 0.05198 1.0000
loop_
_topos_bond_atom_site_label_1
_topos_bond_atom_site_label_2
_topos_bond_site_symmetry_1
_topos_bond_site_symmetry_2
_topos_bond_distance
_topos_bond_type
_topos_bond_multiplicity
O1 Si13 1_0_0_0 1_0_0_0 1.6090 V 16
O1 Si1 1_0_0_0 16_0_0_0 1.6100 V 16
O2 Si19 1_0_0_0 1_0_0_0 1.6100 V 16
O2 Si12 1_0_0_0 10_0_0_0 1.6090 V 16
O3 Si18 1_0_0_0 1_0_0_0 1.6100 V 16
O3 Si2 1_0_0_0 16_0_0_0 1.6100 V 16
O4 Si14 1_0_0_0 1_0_0_0 1.6080 V 16
O4 Si3 1_0_0_0 11_0_0_1 1.6100 V 16
O5 Si20 1_0_0_0 1_0_0_0 1.6100 V 16
O5 Si8 1_0_0_0 10_0_0_0 1.6100 V 16
O6 Si21 1_0_0_0 1_0_0_0 1.6100 V 16
O6 Si9 1_0_0_0 16_0_0_0 1.6090 V 16
O7 Si4 1_0_0_0 1_0_0_0 1.6090 V 16
O7 Si1 1_0_0_0 1_0_0_0 1.6140 V 16
O8 Si7 1_0_0_0 13_0_0_1 1.6070 V 16
O8 Si1 1_0_0_0 1_0_0_1 1.6080 V 16
O9 Si10 1_0_0_0 1_0_0_0 1.6060 V 16
O9 Si1 1_0_0_0 1_0_0_0 1.6120 V 16
O10 Si2 1_0_0_0 1_0_0_0 1.6070 V 16
O10 Si12 1_0_0_0 1_0_0_0 1.6150 V 16
O11 Si12 1_0_0_0 1_0_0_0 1.6080 V 16
O11 Si10 1_0_0_0 1_0_0_0 1.6100 V 16
O12 Si11 1_0_0_0 1_0_0_0 1.6060 V 16
O12 Si2 1_0_0_0 1_0_0_0 1.6110 V 16
O13 Si2 1_0_0_0 1_0_0_0 1.6080 V 16
O13 Si5 1_0_0_0 13_0_0_0 1.6090 V 16
O14 Si5 1_0_0_0 1_0_0_0 1.6090 V 16
O14 Si3 1_0_0_0 1_0_0_0 1.6110 V 16
O15 Si3 1_0_0_0 1_0_0_0 1.6090 V 16
O15 Si11 1_0_0_0 1_0_0_0 1.6090 V 16
O16 Si8 1_0_0_0 1_0_0_0 1.6090 V 16
O16 Si6 1_0_0_0 1_0_0_0 1.6090 V 16
O17 Si7 1_0_0_0 1_0_0_0 1.6090 V 16
O17 Si8 1_0_0_0 1_0_0_0 1.6140 V 16
O18 Si7 1_0_0_0 1_0_0_0 1.6100 V 16
O18 Si9 1_0_0_0 1_0_0_0 1.6100 V 16
O19 Si9 1_0_0_0 1_0_0_0 1.6090 V 16
O19 Si4 1_0_0_0 15_0_0_0 1.6070 V 16
O20 Si4 1_0_0_0 1_0_0_0 1.6090 V 16
O20 Si22 1_0_0_0 1_0_0_0 1.6110 V 16
O21 Si23 1_0_0_0 1_0_0_0 1.6100 V 16
O21 Si10 1_0_0_0 1_0_0_0 1.6120 V 16
O22 Si10 1_0_0_0 1_0_0_0 1.6100 V 16
O22 Si6 1_0_0_0 13_0_0_0 1.6080 V 16
O23 Si24 1_0_0_0 1_0_0_0 1.6100 V 16
O23 Si11 1_0_0_0 1_0_0_0 1.6100 V 16
O24 Si5 1_0_0_0 1_0_0_0 1.6100 V 16
O24 Si15 1_0_0_0 4_1_0_0 1.6120 V 16
O25 Si5 1_0_0_0 1_0_0_0 1.6110 V 16
O25 Si6 1_0_0_0 1_0_0_0 1.6120 V 16
O26 Si6 1_0_0_0 1_0_0_0 1.6100 V 16
O26 Si16 1_0_0_0 1_0_0_0 1.6100 V 16
O27 Si17 1_0_0_0 1_0_0_0 1.6090 V 16
O27 Si7 1_0_0_0 1_0_0_0 1.6090 V 16
O28 Si13 1_0_0_0 1_0_0_0 1.6100 V 8
O28 Si16 1_0_0_0 4_1_0_0 1.6070 V 8
O29 Si19 1_0_0_0 1_0_0_0 1.6070 V 8
O29 Si13 1_0_0_0 1_0_0_0 1.6100 V 8
O30 Si18 1_0_0_0 1_0_0_0 1.6080 V 8
O30 Si14 1_0_0_0 4_1_0_1 1.6100 V 8
O31 Si14 1_0_0_0 1_0_0_-1 1.6080 V 8
O31 Si15 1_0_0_0 4_1_0_0 1.6100 V 8
O32 Si20 1_0_0_0 1_0_0_0 1.6090 V 8
O32 Si21 1_0_0_0 1_0_0_0 1.6110 V 8
O33 Si20 1_0_0_0 1_0_0_0 1.6100 V 8
O33 Si23 1_0_0_0 4_1_0_0 1.6100 V 8
O34 Si21 1_0_0_0 1_0_0_0 1.6080 V 8
O34 Si22 1_0_0_0 4_1_0_0 1.6100 V 8
O35 Si23 1_0_0_0 1_0_0_0 1.6040 V 8
O35 Si22 1_0_0_0 1_0_0_0 1.6080 V 8
O36 Si24 1_0_0_0 1_0_0_0 1.6080 V 8
O36 Si15 1_0_0_0 4_1_0_0 1.6080 V 8
O37 Si16 1_0_0_0 1_0_0_0 1.6070 V 8
O37 Si17 1_0_0_0 1_0_0_0 1.6120 V 8
O38 Si19 1_0_0_0 1_0_0_0 1.6090 V 8
O39 Si18 1_0_0_0 1_0_0_0 1.6090 V 8
O40 Si12 1_0_0_0 1_0_0_0 1.6080 V 16
O41 Si8 1_0_0_0 1_0_0_0 1.6110 V 16
O42 Si9 1_0_0_0 1_0_0_0 1.6090 V 16
O43 Si11 1_0_0_0 1_0_0_0 1.6100 V 16
O44 Si3 1_0_0_0 1_0_0_0 1.6060 V 16
O45 Si4 1_0_0_0 1_0_0_0 1.6060 V 16
O46 Si24 1_0_0_0 1_0_0_0 1.6090 V 8
O47 Si17 1_0_0_0 1_0_0_0 1.6080 V 8
Lr4 Lr10 1_0_0_0 1_0_0_0 4.4850 V 8
Lr4 Lr19 1_0_0_0 11_0_0_0 3.5680 V 8
Lr5 Lr5 1_0_0_0 3_0_0_2 2.3730 V 4
Lr6 Lr12 1_0_0_0 1_0_0_0 4.2420 V 8
Lr6 Lr15 1_0_0_0 1_0_0_0 4.7440 V 8
Lr7 Lr11 1_0_0_0 1_0_0_0 4.5560 V 8
Lr7 Lr13 1_0_0_0 9_-1_-1_0 4.4340 V 8
Lr8 Lr14 1_0_0_0 1_0_0_0 2.9900 V 8
Lr10 Lr11 1_0_0_0 1_0_0_0 6.5100 V 4
Lr13 Lr18 1_0_0_0 10_0_0_-1 4.4260 V 8
Lr15 Lr19 1_0_0_0 1_0_0_0 5.0730 V 8
Lr18 Lr18 1_0_0_0 3_0_0_2 3.3550 V 4
#End of data_96-TOPOS_IMF-PPT1

data_97-TOPOS_ION-PPT1
_audit_creation_date                2025-02-23
_audit_creation_method              ToposPro
_chemical_formula_structural        ION-PPT1
_chemical_formula_sum               'Lr10 O41 Si20'
_citation_special_details
;
Space Group: PNMA->P n m a. File: ION-PPT1.cif. 
;
_cell_length_a                      20.0314
_cell_length_b                      34.878
_cell_length_c                      13.2653
_cell_angle_alpha                   90
_cell_angle_beta                    90
_cell_angle_gamma                   90
_cell_volume                        9267.87
_cell_formula_units_Z               8
_symmetry_space_group_name_H-M      'P n m a'
_symmetry_Int_Tables_number         62
_refine_ls_R_factor_all             0
loop_
_symmetry_equiv_pos_site_id
_symmetry_equiv_pos_as_xyz
1 x,y,z
2 1/2-x,-y,1/2+z
3 1/2+x,1/2-y,1/2-z
4 -x,1/2+y,-z
5 -x,-y,-z
6 1/2+x,y,1/2-z
7 1/2-x,1/2+y,1/2+z
8 x,1/2-y,z
loop_
_atom_site_label
_atom_site_type_symbol
_atom_site_symmetry_multiplicity
_atom_site_fract_x
_atom_site_fract_y
_atom_site_fract_z
_atom_site_occupancy
O1 O 8 0.40262 0.57626 0.56456 1.0000
O2 O 8 0.49556 0.69972 0.73742 1.0000
O3 O 8 0.37079 0.68181 0.77811 1.0000
O4 O 8 0.41075 0.46931 0.31764 1.0000
O5 O 8 0.60790 0.59381 0.78722 1.0000
O6 O 8 0.12010 0.69445 0.70087 1.0000
O7 O 8 0.24012 0.68962 0.77928 1.0000
O8 O 8 0.59011 0.67955 0.60980 1.0000
O9 O 8 0.22514 0.71213 0.59155 1.0000
O10 O 8 0.49701 0.47776 0.70548 1.0000
O11 O 8 0.28560 0.71227 0.13831 1.0000
O12 O 8 0.30282 0.57421 0.11065 1.0000
O13 O 8 0.36751 0.46864 0.72711 1.0000
O14 O 8 0.61081 0.47196 0.80207 1.0000
O15 O 8 0.68729 0.57125 0.93346 1.0000
O16 O 8 0.41678 0.40226 0.40701 1.0000
O17 O 8 0.73917 0.48435 0.77998 1.0000
O18 O 8 0.26645 0.42078 0.25109 1.0000
O19 O 8 0.58453 0.49847 0.43664 1.0000
O20 O 8 0.29277 0.46007 0.88838 1.0000
O21 O 8 0.18770 0.58486 0.02163 1.0000
O22 O 8 0.56716 0.57203 0.40733 1.0000
O23 O 8 0.70132 0.40610 0.08074 1.0000
O24 O 8 0.70164 0.63997 0.85710 1.0000
O25 O 8 0.32023 0.52928 0.82169 1.0000
O26 O 8 0.55796 0.71231 0.43813 1.0000
O27 O 8 0.60747 0.46192 0.60583 1.0000
O28 O 8 0.60788 0.64275 0.43954 1.0000
O29 O 8 0.26549 0.64388 0.05999 1.0000
O30 O 8 0.20226 0.46739 0.03134 1.0000
O31 O 8 0.51203 0.42277 0.28389 1.0000
O32 O 8 0.31709 0.50349 0.04522 1.0000
O33 O 8 0.30808 0.70045 0.94594 1.0000
O34 O 8 0.40206 0.78777 0.60253 1.0000
O35 O 8 0.63825 0.40520 0.25340 1.0000
O36 O 8 0.81509 0.29893 0.98472 1.0000
O37 O 8 0.43875 0.85829 0.64543 1.0000
O38 O 4 0.58477 0.75000 0.67660 1.0000
O39 O 4 0.31665 0.75000 0.49101 1.0000
O40 O 4 0.31753 0.75000 0.79665 1.0000
O41 O 4 0.44401 0.75000 0.44270 1.0000
O42 O 4 0.51723 0.75000 0.27854 1.0000
O43 O 4 0.19233 0.75000 0.42770 1.0000
O44 O 4 0.19982 0.75000 0.25078 1.0000
O45 O 4 0.32730 0.75000 0.29787 1.0000
Si1 Si 8 0.68253 0.46942 0.85646 1.0000
Si2 Si 8 0.28092 0.46477 0.00780 1.0000
Si3 Si 8 0.30515 0.48567 0.78906 1.0000
Si4 Si 8 0.61130 0.59917 0.47939 1.0000
Si5 Si 8 0.62324 0.46283 0.48683 1.0000
Si6 Si 8 0.57713 0.40272 0.33182 1.0000
Si7 Si 8 0.73612 0.40058 0.97235 1.0000
Si8 Si 8 0.42657 0.68395 0.69090 1.0000
Si9 Si 8 0.19696 0.68409 0.67792 1.0000
Si10 Si 8 0.42808 0.46909 0.64747 1.0000
Si11 Si 8 0.57247 0.70580 0.70605 1.0000
Si12 Si 8 0.61028 0.68422 0.49290 1.0000
Si13 Si 8 0.57607 0.48559 0.69862 1.0000
Si14 Si 8 0.56708 0.57477 0.69538 1.0000
Si15 Si 8 0.73907 0.31069 0.96019 1.0000
Si16 Si 8 0.30920 0.79457 0.82531 1.0000
Si17 Si 8 0.30331 0.57418 0.80977 1.0000
Si18 Si 8 0.18267 0.59618 0.66845 1.0000
Si19 Si 4 0.39166 0.75000 0.53474 1.0000
Si20 Si 4 0.51920 0.75000 0.39990 1.0000
Si21 Si 4 0.23962 0.75000 0.52584 1.0000
Si22 Si 4 0.22541 0.25000 0.70624 1.0000
Lr1 Lr 8 0.68781 0.64126 0.63248 1.0000
Lr2 Lr 8 0.80256 0.53303 0.84407 1.0000
Lr3 Lr 8 0.80718 0.46978 0.09472 1.0000
Lr4 Lr 8 0.47604 0.52994 0.90911 1.0000
Lr5 Lr 8 0.51125 0.53014 0.53811 1.0000
Lr6 Lr 8 0.57377 0.64068 0.67330 1.0000
Lr7 Lr 8 0.70420 0.35877 0.19900 1.0000
Lr8 Lr 4 0.69297 0.75000 0.36629 1.0000
Lr9 Lr 4 0.31209 0.75000 0.68111 1.0000
Lr10 Lr 4 0.49565 0.75000 0.00774 1.0000
Lr11 Lr 4 0.51619 0.75000 0.58929 1.0000
Lr12 Lr 4 0.44579 0.75000 0.42084 1.0000
Lr13 Lr 4 0.69990 0.25000 0.53129 1.0000
loop_
_topos_bond_atom_site_label_1
_topos_bond_atom_site_label_2
_topos_bond_site_symmetry_1
_topos_bond_site_symmetry_2
_topos_bond_distance
_topos_bond_type
_topos_bond_multiplicity
O1 Si6 1_0_0_0 5_1_1_1 1.6100 V 8
O1 Si5 1_0_0_0 5_1_1_1 1.6100 V 8
O2 Si11 1_0_0_0 1_0_0_0 1.6100 V 8
O2 Si8 1_0_0_0 1_0_0_0 1.6100 V 8
O3 Si8 1_0_0_0 1_0_0_0 1.6100 V 8
O3 Si16 1_0_0_0 8_0_1_0 1.6100 V 8
O4 Si13 1_0_0_0 5_1_1_1 1.6100 V 8
O4 Si14 1_0_0_0 5_1_1_1 1.6100 V 8
O5 Si14 1_0_0_0 1_0_0_0 1.6110 V 8
O5 Si18 1_0_0_0 6_0_0_1 1.6110 V 8
O6 Si9 1_0_0_0 1_0_0_0 1.6100 V 8
O6 Si11 1_0_0_0 6_-1_0_1 1.6100 V 8
O7 Si9 1_0_0_0 1_0_0_0 1.6100 V 8
O7 Si16 1_0_0_0 8_0_1_0 1.6100 V 8
O8 Si11 1_0_0_0 1_0_0_0 1.6100 V 8
O8 Si12 1_0_0_0 1_0_0_0 1.6110 V 8
O9 Si9 1_0_0_0 1_0_0_0 1.6090 V 8
O9 Si21 1_0_0_0 1_0_0_0 1.6090 V 8
O10 Si10 1_0_0_0 1_0_0_0 1.6090 V 8
O10 Si13 1_0_0_0 1_0_0_0 1.6100 V 8
O11 Si22 1_0_0_0 2_0_1_-1 1.6100 V 8
O11 Si15 1_0_0_0 5_1_1_1 1.6100 V 8
O12 Si1 1_0_0_0 5_1_1_1 1.6100 V 8
O12 Si7 1_0_0_0 5_1_1_1 1.6110 V 8
O13 Si10 1_0_0_0 1_0_0_0 1.6090 V 8
O13 Si3 1_0_0_0 1_0_0_0 1.6090 V 8
O14 Si1 1_0_0_0 1_0_0_0 1.6100 V 8
O14 Si13 1_0_0_0 1_0_0_0 1.6100 V 8
O15 Si2 1_0_0_0 5_1_1_1 1.6100 V 8
O15 Si18 1_0_0_0 6_0_0_1 1.6100 V 8
O16 Si4 1_0_0_0 5_1_1_1 1.6090 V 8
O16 Si14 1_0_0_0 5_1_1_1 1.6100 V 8
O17 Si1 1_0_0_0 1_0_0_0 1.6090 V 8
O17 Si3 1_0_0_0 6_0_0_1 1.6090 V 8
O18 Si17 1_0_0_0 2_0_1_-1 1.6090 V 8
O18 Si18 1_0_0_0 2_0_1_-1 1.6090 V 8
O19 Si5 1_0_0_0 1_0_0_0 1.6090 V 8
O19 Si10 1_0_0_0 5_1_1_1 1.6090 V 8
O20 Si3 1_0_0_0 1_0_0_0 1.6110 V 8
O20 Si2 1_0_0_0 1_0_0_1 1.6100 V 8
O21 Si4 1_0_0_0 6_-1_0_0 1.6100 V 8
O21 Si7 1_0_0_0 5_1_1_1 1.6100 V 8
O22 Si4 1_0_0_0 1_0_0_0 1.6100 V 8
O22 Si10 1_0_0_0 5_1_1_1 1.6110 V 8
O23 Si7 1_0_0_0 1_0_0_-1 1.6090 V 8
O23 Si17 1_0_0_0 5_1_1_1 1.6100 V 8
O24 Si18 1_0_0_0 6_0_0_1 1.6100 V 8
O24 Si9 1_0_0_0 6_0_0_1 1.6100 V 8
O25 Si3 1_0_0_0 1_0_0_0 1.6100 V 8
O25 Si17 1_0_0_0 1_0_0_0 1.6100 V 8
O26 Si12 1_0_0_0 1_0_0_0 1.6080 V 8
O26 Si20 1_0_0_0 1_0_0_0 1.6090 V 8
O27 Si13 1_0_0_0 1_0_0_0 1.6100 V 8
O27 Si5 1_0_0_0 1_0_0_0 1.6100 V 8
O28 Si4 1_0_0_0 1_0_0_0 1.6110 V 8
O28 Si12 1_0_0_0 1_0_0_0 1.6110 V 8
O29 Si7 1_0_0_0 5_1_1_1 1.6090 V 8
O29 Si15 1_0_0_0 5_1_1_1 1.6100 V 8
O30 Si2 1_0_0_0 1_0_0_0 1.6090 V 8
O30 Si5 1_0_0_0 6_-1_0_0 1.6090 V 8
O31 Si6 1_0_0_0 1_0_0_0 1.6110 V 8
O31 Si14 1_0_0_0 5_1_1_1 1.6110 V 8
O32 Si2 1_0_0_0 1_0_0_0 1.6110 V 8
O32 Si1 1_0_0_0 5_1_1_1 1.6110 V 8
O33 Si16 1_0_0_0 8_0_1_0 1.6100 V 8
O33 Si15 1_0_0_0 5_1_1_2 1.6100 V 8
O34 Si19 1_0_0_0 1_0_0_0 1.6090 V 8
O34 Si8 1_0_0_0 8_0_1_0 1.6090 V 8
O35 Si6 1_0_0_0 1_0_0_0 1.6090 V 8
O35 Si17 1_0_0_0 5_1_1_1 1.6090 V 8
O36 Si15 1_0_0_0 1_0_0_0 1.6100 V 8
O36 Si12 1_0_0_0 2_1_1_0 1.6100 V 8
O37 Si6 1_0_0_0 4_1_0_1 1.6100 V 8
O37 Si8 1_0_0_0 8_0_1_0 1.6110 V 8
O38 Si11 1_0_0_0 1_0_0_0 1.6090 V 8
O39 Si19 1_0_0_0 1_0_0_0 1.6110 V 4
O39 Si21 1_0_0_0 1_0_0_0 1.6110 V 4
O40 Si16 1_0_0_0 1_0_0_0 1.6090 V 8
O41 Si19 1_0_0_0 1_0_0_0 1.6090 V 4
O41 Si20 1_0_0_0 1_0_0_0 1.6100 V 4
O42 Si20 1_0_0_0 1_0_0_0 1.6100 V 4
O43 Si21 1_0_0_0 1_0_0_0 1.6100 V 4
O44 Si22 1_0_0_0 2_0_1_-1 1.6100 V 4
O45 Si22 1_0_0_0 2_0_1_-1 1.6100 V 4
Lr1 Lr6 1_0_0_0 1_0_0_0 2.3480 V 8
Lr1 Lr7 1_0_0_0 2_1_1_0 2.3360 V 8
Lr4 Lr10 1_0_0_0 1_0_0_1 7.7960 V 8
Lr4 Lr4 1_0_0_0 5_1_1_2 3.3310 V 4
Lr5 Lr5 1_0_0_0 5_1_1_1 2.3760 V 4
Lr8 Lr10 1_0_0_0 1_0_0_0 6.1840 V 4
Lr8 Lr13 1_0_0_0 2_1_1_-1 4.9350 V 4
Lr9 Lr13 1_0_0_0 4_1_0_1 2.8280 V 4
Lr10 Lr12 1_0_0_0 1_0_0_0 5.5700 V 4
Lr11 Lr12 1_0_0_0 1_0_0_0 2.6420 V 4
Lr12 Lr13 1_0_0_0 4_1_0_1 2.9870 V 4
#End of data_97-TOPOS_ION-PPT1

data_98-TOPOS_IRN-PPT1
_audit_creation_date                2025-02-23
_audit_creation_method              ToposPro
_chemical_formula_structural        IRN-PPT1
_chemical_formula_sum               'Lr4 O46 Si23'
_citation_special_details
;
Space Group: IMMM->I m m m. File: IRN-PPT1.cif. 
;
_cell_length_a                      19.641
_cell_length_b                      18.4574
_cell_length_c                      16.5655
_cell_angle_alpha                   90
_cell_angle_beta                    90
_cell_angle_gamma                   90
_cell_volume                        6005.355
_cell_formula_units_Z               4
_symmetry_space_group_name_H-M      'I m m m'
_symmetry_Int_Tables_number         71
_refine_ls_R_factor_all             0
loop_
_symmetry_equiv_pos_site_id
_symmetry_equiv_pos_as_xyz
1 x,y,z
2 -x,-y,z
3 x,-y,-z
4 -x,y,-z
5 -x,-y,-z
6 x,y,-z
7 -x,y,z
8 x,-y,z
9 1/2+x,1/2+y,1/2+z
10 1/2-x,1/2-y,1/2+z
11 1/2+x,1/2-y,1/2-z
12 1/2-x,1/2+y,1/2-z
13 1/2-x,1/2-y,1/2-z
14 1/2+x,1/2+y,1/2-z
15 1/2-x,1/2+y,1/2+z
16 1/2+x,1/2-y,1/2+z
loop_
_atom_site_label
_atom_site_type_symbol
_atom_site_symmetry_multiplicity
_atom_site_fract_x
_atom_site_fract_y
_atom_site_fract_z
_atom_site_occupancy
O1 O 16 0.28657 0.14424 0.24730 1.0000
O2 O 16 0.17426 0.07151 0.21695 1.0000
O3 O 16 0.20050 0.18946 0.13576 1.0000
O4 O 16 0.27266 0.07156 0.11074 1.0000
O5 O 16 0.10365 0.42879 0.21331 1.0000
O6 O 16 0.20924 0.42865 0.11593 1.0000
O7 O 16 0.13370 0.31149 0.13395 1.0000
O8 O 16 0.06703 0.18900 0.11175 1.0000
O9 O 8 0.17767 0.00000 0.35399 1.0000
O10 O 8 0.06652 0.00000 0.26351 1.0000
O11 O 8 0.11673 0.50000 0.35003 1.0000
O12 O 8 0.00000 0.07115 0.15052 1.0000
O13 O 4 0.00000 0.11709 0.00000 1.0000
O14 O 8 0.15050 0.23847 0.00000 1.0000
O15 O 4 0.00000 0.50000 0.27491 1.0000
O16 O 4 0.22833 0.00000 0.50000 1.0000
O17 O 4 0.15906 0.50000 0.50000 1.0000
Si1 Si 16 0.23417 0.11952 0.17785 1.0000
Si2 Si 16 0.16572 0.38094 0.17881 1.0000
Si3 Si 16 0.13723 0.23148 0.09547 1.0000
Si4 Si 8 0.24722 0.00000 0.40550 1.0000
Si5 Si 8 0.14846 0.00000 0.26321 1.0000
Si6 Si 8 0.08114 0.50000 0.26253 1.0000
Si7 Si 8 0.18303 0.50000 0.40708 1.0000
Si8 Si 8 0.00000 0.14158 0.09328 1.0000
Si9 Si 4 0.00000 0.00000 0.20662 1.0000
Lr1 Lr 8 0.28355 0.00000 0.24965 1.0000
Lr2 Lr 4 0.13425 0.00000 0.00000 1.0000
Lr3 Lr 2 0.50000 0.50000 0.00000 1.0000
Lr4 Lr 2 0.00000 0.50000 0.00000 1.0000
loop_
_topos_bond_atom_site_label_1
_topos_bond_atom_site_label_2
_topos_bond_site_symmetry_1
_topos_bond_site_symmetry_2
_topos_bond_distance
_topos_bond_type
_topos_bond_multiplicity
O1 Si1 1_0_0_0 1_0_0_0 1.6100 V 16
O1 Si2 1_0_0_0 13_0_0_0 1.6100 V 16
O2 Si5 1_0_0_0 1_0_0_0 1.6080 V 16
O2 Si1 1_0_0_0 1_0_0_0 1.6090 V 16
O3 Si1 1_0_0_0 1_0_0_0 1.6090 V 16
O3 Si3 1_0_0_0 1_0_0_0 1.6100 V 16
O4 Si1 1_0_0_0 1_0_0_0 1.6100 V 16
O4 Si7 1_0_0_0 12_0_-1_0 1.6090 V 16
O5 Si6 1_0_0_0 1_0_0_0 1.6090 V 16
O5 Si2 1_0_0_0 1_0_0_0 1.6100 V 16
O6 Si2 1_0_0_0 1_0_0_0 1.6100 V 16
O6 Si4 1_0_0_0 12_0_0_0 1.6100 V 16
O7 Si2 1_0_0_0 1_0_0_0 1.6100 V 16
O7 Si3 1_0_0_0 1_0_0_0 1.6100 V 16
O8 Si3 1_0_0_0 1_0_0_0 1.6090 V 16
O8 Si8 1_0_0_0 1_0_0_0 1.6100 V 16
O9 Si5 1_0_0_0 1_0_0_0 1.6100 V 8
O9 Si4 1_0_0_0 1_0_0_0 1.6110 V 8
O10 Si5 1_0_0_0 1_0_0_0 1.6090 V 8
O10 Si9 1_0_0_0 1_0_0_0 1.6110 V 8
O11 Si7 1_0_0_0 1_0_0_0 1.6090 V 8
O11 Si6 1_0_0_0 1_0_0_0 1.6090 V 8
O12 Si9 1_0_0_0 1_0_0_0 1.6090 V 8
O12 Si8 1_0_0_0 1_0_0_0 1.6090 V 8
O13 Si8 1_0_0_0 1_0_0_0 1.6100 V 8
O14 Si3 1_0_0_0 1_0_0_0 1.6080 V 16
O15 Si6 1_0_0_0 1_0_0_0 1.6070 V 8
O16 Si4 1_0_0_0 1_0_0_0 1.6090 V 8
O17 Si7 1_0_0_0 1_0_0_0 1.6100 V 8
Lr3 Lr4 1_0_0_0 9_0_-1_0 12.4010 V 8
Lr3 Lr3 1_0_0_0 1_0_1_0 18.4570 V 2
#End of data_98-TOPOS_IRN-PPT1

data_99-TOPOS_IRR-PPT1
_audit_creation_date                2025-02-23
_audit_creation_method              ToposPro
_chemical_formula_structural        IRR-PPT1
_chemical_formula_sum               'Lr1 O4 Si2'
_citation_special_details
;
Space Group: P6/MMM->P 6/m m m. File: IRR-PPT1.cif. 
;
_cell_length_a                      19.031
_cell_length_b                      19.031
_cell_length_c                      14.101
_cell_angle_alpha                   90
_cell_angle_beta                    90
_cell_angle_gamma                   120
_cell_volume                        4422.866
_cell_formula_units_Z               26
_symmetry_space_group_name_H-M      'P 6/m m m'
_symmetry_Int_Tables_number         191
_refine_ls_R_factor_all             0
loop_
_symmetry_equiv_pos_site_id
_symmetry_equiv_pos_as_xyz
1 x,y,z
2 -x,-y,z
3 -y,x-y,z
4 -x+y,-x,z
5 x-y,x,z
6 y,-x+y,z
7 x-y,-y,-z
8 -x,-x+y,-z
9 y,x,-z
10 -y,-x,-z
11 x,x-y,-z
12 -x+y,y,-z
13 -x,-y,-z
14 x,y,-z
15 y,-x+y,-z
16 x-y,x,-z
17 -x+y,-x,-z
18 -y,x-y,-z
19 -x+y,y,z
20 x,x-y,z
21 -y,-x,z
22 y,x,z
23 -x,-x+y,z
24 x-y,-y,z
loop_
_atom_site_label
_atom_site_type_symbol
_atom_site_symmetry_multiplicity
_atom_site_fract_x
_atom_site_fract_y
_atom_site_fract_z
_atom_site_occupancy
O1 O 24 0.44030 0.15020 0.33360 1.0000
O2 O 12 0.56000 0.12000 0.36950 1.0000
O3 O 12 0.62105 0.24210 0.11760 1.0000
O4 O 12 0.41010 0.00000 0.35300 1.0000
O5 O 12 0.45170 0.09690 0.50000 1.0000
O6 O 12 0.49400 0.24700 0.18500 1.0000
O7 O 12 0.57510 0.28755 0.34680 1.0000
O8 O 6 0.52670 0.26335 0.00000 1.0000
O9 O 2 0.66667 0.33333 0.50000 1.0000
Si1 Si 24 0.46620 0.09220 0.38830 1.0000
Si2 Si 12 0.48650 0.24325 0.29890 1.0000
Si3 Si 12 0.56410 0.28205 0.10560 1.0000
Si4 Si 4 0.66667 0.33333 0.38610 1.0000
Lr1 Lr 4 0.66667 0.33333 0.22851 1.0000
Lr2 Lr 2 0.66667 0.33333 0.00000 1.0000
Lr3 Lr 3 0.50000 0.00000 0.50000 1.0000
Lr4 Lr 1 0.00000 0.00000 0.50000 1.0000
Lr5 Lr 6 0.60043 0.20085 0.50000 1.0000
Lr6 Lr 3 0.50000 0.00000 0.00000 1.0000
Lr7 Lr 6 0.52139 0.26070 0.50000 1.0000
Lr8 Lr 1 0.00000 0.00000 0.00000 1.0000
loop_
_topos_bond_atom_site_label_1
_topos_bond_atom_site_label_2
_topos_bond_site_symmetry_1
_topos_bond_site_symmetry_2
_topos_bond_distance
_topos_bond_type
_topos_bond_multiplicity
O1 Si2 1_0_0_0 1_0_0_0 1.6100 V 24
O1 Si1 1_0_0_0 1_0_0_0 1.6130 V 24
O2 Si1 1_0_0_0 1_0_0_0 1.6100 V 24
O3 Si3 1_0_0_0 1_0_0_0 1.6140 V 24
O4 Si1 1_0_0_0 1_0_0_0 1.6100 V 24
O5 Si1 1_0_0_0 1_0_0_0 1.6090 V 24
O6 Si3 1_0_0_0 1_0_0_0 1.6090 V 12
O6 Si2 1_0_0_0 1_0_0_0 1.6110 V 12
O7 Si4 1_0_0_0 1_0_0_0 1.6080 V 12
O7 Si2 1_0_0_0 1_0_0_0 1.6090 V 12
O8 Si3 1_0_0_0 1_0_0_0 1.6120 V 12
O9 Si4 1_0_0_0 1_0_0_0 1.6060 V 4
Lr4 Lr8 1_0_0_0 1_0_0_0 7.0500 V 2
Lr5 Lr7 1_0_0_0 1_0_0_0 2.2960 V 12
Lr6 Lr8 1_0_0_0 1_0_0_0 9.5160 V 6
#End of data_99-TOPOS_IRR-PPT1

data_100-TOPOS_-IRY-PPT1
_audit_creation_date                2025-02-23
_audit_creation_method              ToposPro
_chemical_formula_structural        -IRY-PPT1
_chemical_formula_sum               'Lr9 O77 Si38'
_citation_special_details
;
Space Group: P63/MMC->P 63/m m c. File: -IRY-PPT1.cif. 
;
_cell_length_a                      15.9499
_cell_length_b                      15.9499
_cell_length_c                      31.0796
_cell_angle_alpha                   90
_cell_angle_beta                    90
_cell_angle_gamma                   120
_cell_volume                        6847.341
_cell_formula_units_Z               2
_symmetry_space_group_name_H-M      'P 63/m m c'
_symmetry_Int_Tables_number         194
_refine_ls_R_factor_all             0
loop_
_symmetry_equiv_pos_site_id
_symmetry_equiv_pos_as_xyz
1 x,y,z
2 -x,-y,1/2+z
3 -y,x-y,z
4 -x+y,-x,z
5 x-y,x,1/2+z
6 y,-x+y,1/2+z
7 x-y,-y,-z
8 -x,-x+y,-z
9 y,x,-z
10 -y,-x,1/2-z
11 x,x-y,1/2-z
12 -x+y,y,1/2-z
13 -x,-y,-z
14 x,y,1/2-z
15 y,-x+y,-z
16 x-y,x,-z
17 -x+y,-x,1/2-z
18 -y,x-y,1/2-z
19 -x+y,y,z
20 x,x-y,z
21 -y,-x,z
22 y,x,1/2+z
23 -x,-x+y,1/2+z
24 x-y,-y,1/2+z
loop_
_atom_site_label
_atom_site_type_symbol
_atom_site_symmetry_multiplicity
_atom_site_fract_x
_atom_site_fract_y
_atom_site_fract_z
_atom_site_occupancy
O1 O 24 0.44070 0.33050 0.98290 1.0000
O2 O 24 0.41310 0.36370 0.06290 1.0000
O3 O 24 0.28250 0.39790 0.09770 1.0000
O4 O 12 0.22945 0.45890 0.16670 1.0000
O5 O 12 0.27865 0.55730 0.09420 1.0000
O6 O 4 0.33333 0.66667 0.02470 1.0000
O7 O 12 0.58800 0.41200 0.03630 1.0000
O8 O 12 0.45660 0.54340 0.07710 1.0000
O9 O 12 0.38770 0.61230 0.19610 1.0000
O10 O 12 0.45660 0.22830 0.04550 1.0000
O11 O 6 0.25055 0.50110 0.25000 1.0000
Si1 Si 24 0.47460 0.33350 0.03190 1.0000
Si2 Si 24 0.37110 0.43690 0.06400 1.0000
Si3 Si 12 0.22535 0.45070 0.11490 1.0000
Si4 Si 12 0.27215 0.54430 0.20180 1.0000
Si5 Si 4 0.33333 0.66667 0.07650 1.0000
Lr1 Lr 4 0.33333 0.66667 0.14666 1.0000
Lr2 Lr 2 0.33333 0.66667 0.25000 1.0000
Lr3 Lr 6 0.50000 0.50000 0.00000 1.0000
Lr4 Lr 2 0.66667 0.33333 0.25000 1.0000
Lr5 Lr 2 0.00000 0.00000 0.00000 1.0000
Lr6 Lr 2 0.00000 0.00000 0.25000 1.0000
loop_
_topos_bond_atom_site_label_1
_topos_bond_atom_site_label_2
_topos_bond_site_symmetry_1
_topos_bond_site_symmetry_2
_topos_bond_distance
_topos_bond_type
_topos_bond_multiplicity
O1 Si2 1_0_0_0 9_0_0_1 1.6080 V 24
O1 Si1 1_0_0_0 1_0_0_1 1.6090 V 24
O2 Si1 1_0_0_0 1_0_0_0 1.6110 V 24
O2 Si2 1_0_0_0 1_0_0_0 1.6110 V 24
O3 Si3 1_0_0_0 1_0_0_0 1.6100 V 24
O3 Si2 1_0_0_0 1_0_0_0 1.6130 V 24
O4 Si4 1_0_0_0 1_0_0_0 1.6070 V 12
O4 Si3 1_0_0_0 1_0_0_0 1.6140 V 12
O5 Si3 1_0_0_0 1_0_0_0 1.6070 V 12
O5 Si5 1_0_0_0 1_0_0_0 1.6080 V 12
O6 Si5 1_0_0_0 1_0_0_0 1.6100 V 4
O7 Si1 1_0_0_0 1_0_0_0 1.6100 V 24
O8 Si2 1_0_0_0 1_0_0_0 1.6110 V 24
O9 Si4 1_0_0_0 1_0_0_0 1.6140 V 24
O10 Si1 1_0_0_0 1_0_0_0 1.6110 V 24
O11 Si4 1_0_0_0 1_0_0_0 1.6130 V 12
Lr4 Lr6 1_0_0_0 1_0_0_0 9.2090 V 6
Lr5 Lr6 1_0_0_0 1_0_0_0 7.7700 V 4
#End of data_100-TOPOS_-IRY-PPT1

data_101-TOPOS_ISV-PPT1
_audit_creation_date                2025-02-23
_audit_creation_method              ToposPro
_chemical_formula_structural        ISV-PPT1
_chemical_formula_sum               'Lr9 O32 Si16'
_citation_special_details
;
Space Group: P42/MMC->P 42/m m c. File: ISV-PPT1.cif. 
;
_cell_length_a                      12.874
_cell_length_b                      12.874
_cell_length_c                      25.674
_cell_angle_alpha                   90
_cell_angle_beta                    90
_cell_angle_gamma                   90
_cell_volume                        4255.205
_cell_formula_units_Z               4
_symmetry_space_group_name_H-M      'P 42/m m c'
_symmetry_Int_Tables_number         131
_refine_ls_R_factor_all             0
loop_
_symmetry_equiv_pos_site_id
_symmetry_equiv_pos_as_xyz
1 x,y,z
2 -x,-y,z
3 x,-y,-z
4 -x,y,-z
5 -y,-x,1/2-z
6 y,x,1/2-z
7 y,-x,1/2+z
8 -y,x,1/2+z
9 -x,-y,-z
10 x,y,-z
11 -x,y,z
12 x,-y,z
13 y,x,1/2+z
14 -y,-x,1/2+z
15 -y,x,1/2-z
16 y,-x,1/2-z
loop_
_atom_site_label
_atom_site_type_symbol
_atom_site_symmetry_multiplicity
_atom_site_fract_x
_atom_site_fract_y
_atom_site_fract_z
_atom_site_occupancy
O1 O 16 0.19590 0.19450 0.09130 1.0000
O2 O 16 0.39800 0.16370 0.91060 1.0000
O3 O 16 0.32160 0.33550 0.94890 1.0000
O4 O 16 0.31640 0.30400 0.84780 1.0000
O5 O 8 0.14510 0.11950 0.00000 1.0000
O6 O 8 0.13370 0.00000 0.08250 1.0000
O7 O 8 0.00000 0.15240 0.07020 1.0000
O8 O 4 0.50000 0.00000 0.05730 1.0000
O9 O 4 0.50000 0.16850 0.00000 1.0000
O10 O 4 0.50000 0.33260 0.00000 1.0000
O11 O 4 0.38410 0.50000 0.00000 1.0000
O12 O 8 0.35300 0.35300 0.25000 1.0000
O13 O 8 0.50000 0.37260 0.17950 1.0000
O14 O 8 0.34070 0.50000 0.17920 1.0000
Si1 Si 16 0.30790 0.24940 0.90400 1.0000
Si2 Si 16 0.11850 0.11680 0.06120 1.0000
Si3 Si 16 0.37740 0.38240 0.19030 1.0000
Si4 Si 8 0.38230 0.37520 0.00000 1.0000
Si5 Si 8 0.50000 0.12480 0.05880 1.0000
Lr1 Lr 8 0.29320 0.00000 0.77731 1.0000
Lr2 Lr 4 0.50000 0.24970 0.00000 1.0000
Lr3 Lr 2 0.00000 0.00000 0.25000 1.0000
Lr4 Lr 2 0.00000 0.00000 0.00000 1.0000
Lr5 Lr 2 0.00000 0.50000 0.00000 1.0000
Lr6 Lr 4 0.31930 0.00000 0.00000 1.0000
Lr7 Lr 2 0.50000 0.50000 0.25000 1.0000
Lr8 Lr 4 0.50000 0.50000 0.09020 1.0000
Lr9 Lr 4 0.00000 0.50000 0.23305 1.0000
Lr10 Lr 4 0.00000 0.50000 0.91312 1.0000
loop_
_topos_bond_atom_site_label_1
_topos_bond_atom_site_label_2
_topos_bond_site_symmetry_1
_topos_bond_site_symmetry_2
_topos_bond_distance
_topos_bond_type
_topos_bond_multiplicity
O1 Si2 1_0_0_0 1_0_0_0 1.6100 V 16
O1 Si1 1_0_0_0 10_0_0_1 1.6100 V 16
O2 Si1 1_0_0_0 1_0_0_0 1.6100 V 16
O2 Si5 1_0_0_0 4_1_0_1 1.6100 V 16
O3 Si1 1_0_0_0 1_0_0_0 1.6090 V 16
O3 Si4 1_0_0_0 1_0_0_1 1.6100 V 16
O4 Si1 1_0_0_0 1_0_0_0 1.6090 V 16
O4 Si3 1_0_0_0 10_0_0_1 1.6100 V 16
O5 Si2 1_0_0_0 1_0_0_0 1.6090 V 16
O6 Si2 1_0_0_0 1_0_0_0 1.6120 V 16
O7 Si2 1_0_0_0 1_0_0_0 1.6100 V 16
O8 Si5 1_0_0_0 1_0_0_0 1.6070 V 8
O9 Si5 1_0_0_0 1_0_0_0 1.6110 V 8
O10 Si4 1_0_0_0 1_0_0_0 1.6110 V 8
O11 Si4 1_0_0_0 1_0_0_0 1.6070 V 8
O12 Si3 1_0_0_0 1_0_0_0 1.6100 V 16
O13 Si3 1_0_0_0 1_0_0_0 1.6070 V 16
O14 Si3 1_0_0_0 1_0_0_0 1.6110 V 16
Lr1 Lr3 1_0_0_0 3_0_0_1 3.8390 V 8
Lr1 Lr9 1_0_0_0 7_0_0_0 2.8950 V 8
Lr5 Lr10 1_0_0_0 3_0_1_1 2.2310 V 4
Lr9 Lr10 1_0_0_0 3_0_1_1 3.7530 V 4
#End of data_101-TOPOS_ISV-PPT1

data_102-TOPOS_ITE-PPT1
_audit_creation_date                2025-02-23
_audit_creation_method              ToposPro
_chemical_formula_structural        ITE-PPT1
_chemical_formula_sum               'Lr3 O32 Si16'
_citation_special_details
;
Space Group: CMCM->C m c m. File: ITE-PPT1.cif. 
;
_cell_length_a                      20.753
_cell_length_b                      9.804
_cell_length_c                      20.009
_cell_angle_alpha                   90
_cell_angle_beta                    90
_cell_angle_gamma                   90
_cell_volume                        4071.08
_cell_formula_units_Z               4
_symmetry_space_group_name_H-M      'C m c m'
_symmetry_Int_Tables_number         63
_refine_ls_R_factor_all             0
loop_
_symmetry_equiv_pos_site_id
_symmetry_equiv_pos_as_xyz
1 x,y,z
2 -x,-y,1/2+z
3 x,-y,-z
4 -x,y,1/2-z
5 -x,-y,-z
6 x,y,1/2-z
7 -x,y,z
8 x,-y,1/2+z
9 1/2+x,1/2+y,z
10 1/2-x,1/2-y,1/2+z
11 1/2+x,1/2-y,-z
12 1/2-x,1/2+y,1/2-z
13 1/2-x,1/2-y,-z
14 1/2+x,1/2+y,1/2-z
15 1/2-x,1/2+y,z
16 1/2+x,1/2-y,1/2+z
loop_
_atom_site_label
_atom_site_type_symbol
_atom_site_symmetry_multiplicity
_atom_site_fract_x
_atom_site_fract_y
_atom_site_fract_z
_atom_site_occupancy
O1 O 16 0.26140 0.86730 0.14380 1.0000
O2 O 16 0.29410 0.12620 0.16400 1.0000
O3 O 16 0.38330 0.94570 0.12880 1.0000
O4 O 16 0.09200 0.24470 0.04360 1.0000
O5 O 16 0.32700 0.27630 0.05880 1.0000
O6 O 16 0.21180 0.15810 0.06370 1.0000
O7 O 8 0.33140 0.93500 0.25000 1.0000
O8 O 8 0.09870 0.50000 0.00000 1.0000
O9 O 8 0.00000 0.42220 0.07580 1.0000
O10 O 8 0.12780 0.00000 0.00000 1.0000
Si1 Si 16 0.31750 0.96850 0.17170 1.0000
Si2 Si 16 0.07670 0.40320 0.06200 1.0000
Si3 Si 16 0.26770 0.23220 0.10760 1.0000
Si4 Si 16 0.15120 0.15650 0.01210 1.0000
Lr1 Lr 8 0.29013 0.00000 0.00000 1.0000
Lr2 Lr 4 0.50000 0.42731 0.25000 1.0000
loop_
_topos_bond_atom_site_label_1
_topos_bond_atom_site_label_2
_topos_bond_site_symmetry_1
_topos_bond_site_symmetry_2
_topos_bond_distance
_topos_bond_type
_topos_bond_multiplicity
O1 Si1 1_0_0_0 1_0_0_0 1.6280 V 16
O1 Si3 1_0_0_0 15_0_0_0 1.6260 V 16
O2 Si3 1_0_0_0 1_0_0_0 1.6290 V 16
O2 Si1 1_0_0_0 1_0_-1_0 1.6280 V 16
O3 Si1 1_0_0_0 1_0_0_0 1.6280 V 16
O3 Si2 1_0_0_0 15_0_0_0 1.6280 V 16
O4 Si2 1_0_0_0 1_0_0_0 1.6280 V 16
O4 Si4 1_0_0_0 1_0_0_0 1.6290 V 16
O5 Si3 1_0_0_0 1_0_0_0 1.6290 V 16
O5 Si4 1_0_0_0 13_0_0_0 1.6280 V 16
O6 Si3 1_0_0_0 1_0_0_0 1.6260 V 16
O6 Si4 1_0_0_0 1_0_0_0 1.6270 V 16
O7 Si1 1_0_0_0 1_0_0_0 1.6270 V 16
O8 Si2 1_0_0_0 1_0_0_0 1.6270 V 16
O9 Si2 1_0_0_0 1_0_0_0 1.6260 V 16
O10 Si4 1_0_0_0 1_0_0_0 1.6270 V 16
Lr2 Lr2 1_0_0_0 1_0_1_0 9.8040 V 4
Lr2 Lr2 1_0_0_0 2_1_1_0 10.1060 V 4
#End of data_102-TOPOS_ITE-PPT1

data_103-TOPOS_ITG-PPT1
_audit_creation_date                2025-02-23
_audit_creation_method              ToposPro
_chemical_formula_structural        ITG-PPT1
_chemical_formula_sum               'Lr1 O4 Si2'
_citation_special_details
;
Space Group: P2/M->P 2/m. File: ITG-PPT1.cif. 
;
_cell_length_a                      12.7411
_cell_length_b                      12.6989
_cell_length_c                      20.9991
_cell_angle_alpha                   90
_cell_angle_beta                    96.29
_cell_angle_gamma                   90
_cell_volume                        3377.158
_cell_formula_units_Z               28
_symmetry_space_group_name_H-M      'P 2/m'
_symmetry_Int_Tables_number         10
_refine_ls_R_factor_all             0
loop_
_symmetry_equiv_pos_site_id
_symmetry_equiv_pos_as_xyz
1 x,y,z
2 -x,y,-z
3 -x,-y,-z
4 x,-y,z
loop_
_atom_site_label
_atom_site_type_symbol
_atom_site_symmetry_multiplicity
_atom_site_fract_x
_atom_site_fract_y
_atom_site_fract_z
_atom_site_occupancy
O1 O 4 0.02190 0.32000 0.09080 1.0000
O2 O 4 0.22250 0.37380 0.11290 1.0000
O3 O 4 0.38410 0.32370 0.19640 1.0000
O4 O 4 0.19110 0.31750 0.22930 1.0000
O5 O 4 0.09160 0.19210 0.30250 1.0000
O6 O 4 0.05980 0.39640 0.30510 1.0000
O7 O 4 0.24130 0.31730 0.35410 1.0000
O8 O 4 0.24740 0.32360 0.47970 1.0000
O9 O 4 0.41370 0.37940 0.42350 1.0000
O10 O 4 0.47860 0.32030 0.31440 1.0000
O11 O 4 0.60920 0.31870 0.42010 1.0000
O12 O 4 0.77430 0.19330 0.42530 1.0000
O13 O 4 0.79710 0.39660 0.40920 1.0000
O14 O 4 0.84020 0.39650 0.11760 1.0000
O15 O 4 0.57720 0.39660 0.22130 1.0000
O16 O 4 0.54290 0.19380 0.22660 1.0000
O17 O 4 0.73210 0.15790 0.19050 1.0000
O18 O 4 0.69690 0.13020 0.31060 1.0000
O19 O 4 0.90140 0.15940 0.33670 1.0000
O20 O 4 0.93730 0.13240 0.21680 1.0000
O21 O 4 0.86010 0.19310 0.10190 1.0000
O22 O 4 0.85830 0.32090 0.00310 1.0000
O23 O 2 0.08750 0.50000 0.04730 1.0000
O24 O 2 0.28010 0.50000 0.20970 1.0000
O25 O 2 0.24530 0.50000 0.41370 1.0000
O26 O 2 0.54420 0.50000 0.36820 1.0000
O27 O 2 0.68110 0.50000 0.31770 1.0000
O28 O 2 0.88730 0.50000 0.32190 1.0000
O29 O 2 0.95640 0.50000 0.20890 1.0000
O30 O 2 0.75010 0.50000 0.20470 1.0000
O31 O 2 0.61450 0.00000 0.22170 1.0000
O32 O 2 0.80920 0.00000 0.38790 1.0000
O33 O 2 0.82720 0.00000 0.13990 1.0000
O34 O 2 0.01680 0.00000 0.30550 1.0000
Si1 Si 4 0.64670 0.12070 0.23710 1.0000
Si2 Si 4 0.79550 0.12070 0.36510 1.0000
Si3 Si 4 0.98660 0.12120 0.29030 1.0000
Si4 Si 4 0.83870 0.12110 0.16230 1.0000
Si5 Si 4 0.11830 0.37880 0.06210 1.0000
Si6 Si 4 0.26970 0.37890 0.18720 1.0000
Si7 Si 4 0.14590 0.30590 0.29760 1.0000
Si8 Si 4 0.28660 0.38010 0.41790 1.0000
Si9 Si 4 0.51180 0.37990 0.38120 1.0000
Si10 Si 4 0.73320 0.30790 0.44390 1.0000
Si11 Si 4 0.49530 0.30820 0.23980 1.0000
Si12 Si 4 0.89560 0.30710 0.07840 1.0000
Si13 Si 2 0.79000 0.50000 0.36460 1.0000
Si14 Si 2 0.99140 0.50000 0.28490 1.0000
Si15 Si 2 0.84740 0.50000 0.16200 1.0000
Si16 Si 2 0.64590 0.50000 0.24160 1.0000
Lr1 Lr 4 0.79415 0.31482 0.27298 1.0000
Lr2 Lr 4 0.01170 0.32662 0.19060 1.0000
Lr3 Lr 2 0.06978 0.50000 0.16975 1.0000
Lr4 Lr 2 0.33799 0.50000 0.29783 1.0000
Lr5 Lr 2 0.61456 0.50000 0.34200 1.0000
Lr6 Lr 2 0.81687 0.00000 0.26370 1.0000
Lr7 Lr 1 0.50000 0.00000 0.50000 1.0000
Lr8 Lr 1 0.50000 0.00000 0.00000 1.0000
Lr9 Lr 1 0.00000 0.00000 0.50000 1.0000
Lr10 Lr 1 0.50000 0.50000 0.00000 1.0000
Lr11 Lr 1 0.00000 0.00000 0.00000 1.0000
Lr12 Lr 1 0.00000 0.50000 0.00000 1.0000
Lr13 Lr 1 0.50000 0.50000 0.50000 1.0000
Lr14 Lr 1 0.00000 0.50000 0.50000 1.0000
Lr15 Lr 2 0.50000 0.32685 0.00000 1.0000
Lr16 Lr 2 0.00000 0.31940 0.50000 1.0000
loop_
_topos_bond_atom_site_label_1
_topos_bond_atom_site_label_2
_topos_bond_site_symmetry_1
_topos_bond_site_symmetry_2
_topos_bond_distance
_topos_bond_type
_topos_bond_multiplicity
O1 Si5 1_0_0_0 1_0_0_0 1.6100 V 4
O1 Si12 1_0_0_0 1_-1_0_0 1.6100 V 4
O2 Si5 1_0_0_0 1_0_0_0 1.6110 V 4
O2 Si6 1_0_0_0 1_0_0_0 1.6110 V 4
O3 Si6 1_0_0_0 1_0_0_0 1.6100 V 4
O3 Si11 1_0_0_0 1_0_0_0 1.6110 V 4
O4 Si6 1_0_0_0 1_0_0_0 1.6080 V 4
O4 Si7 1_0_0_0 1_0_0_0 1.6100 V 4
O5 Si7 1_0_0_0 1_0_0_0 1.6100 V 4
O5 Si3 1_0_0_0 1_-1_0_0 1.6100 V 4
O6 Si7 1_0_0_0 1_0_0_0 1.6080 V 4
O6 Si14 1_0_0_0 1_-1_0_0 1.6090 V 4
O7 Si7 1_0_0_0 1_0_0_0 1.6090 V 4
O7 Si8 1_0_0_0 1_0_0_0 1.6110 V 4
O8 Si8 1_0_0_0 1_0_0_0 1.6090 V 4
O8 Si10 1_0_0_0 2_1_0_1 1.6090 V 4
O9 Si9 1_0_0_0 1_0_0_0 1.6110 V 4
O9 Si8 1_0_0_0 1_0_0_0 1.6110 V 4
O10 Si9 1_0_0_0 1_0_0_0 1.6090 V 4
O10 Si11 1_0_0_0 1_0_0_0 1.6110 V 4
O11 Si9 1_0_0_0 1_0_0_0 1.6090 V 4
O11 Si10 1_0_0_0 1_0_0_0 1.6100 V 4
O12 Si10 1_0_0_0 1_0_0_0 1.6090 V 4
O12 Si2 1_0_0_0 1_0_0_0 1.6110 V 4
O13 Si13 1_0_0_0 1_0_0_0 1.6100 V 4
O13 Si10 1_0_0_0 1_0_0_0 1.6100 V 4
O14 Si15 1_0_0_0 1_0_0_0 1.6080 V 4
O14 Si12 1_0_0_0 1_0_0_0 1.6100 V 4
O15 Si11 1_0_0_0 1_0_0_0 1.6090 V 4
O15 Si16 1_0_0_0 1_0_0_0 1.6090 V 4
O16 Si11 1_0_0_0 1_0_0_0 1.6100 V 4
O16 Si1 1_0_0_0 1_0_0_0 1.6110 V 4
O17 Si4 1_0_0_0 1_0_0_0 1.6090 V 4
O17 Si1 1_0_0_0 1_0_0_0 1.6120 V 4
O18 Si2 1_0_0_0 1_0_0_0 1.6090 V 4
O18 Si1 1_0_0_0 1_0_0_0 1.6090 V 4
O19 Si2 1_0_0_0 1_0_0_0 1.6110 V 4
O19 Si3 1_0_0_0 1_0_0_0 1.6110 V 4
O20 Si3 1_0_0_0 1_0_0_0 1.6080 V 4
O20 Si4 1_0_0_0 1_0_0_0 1.6100 V 4
O21 Si12 1_0_0_0 1_0_0_0 1.6100 V 4
O21 Si4 1_0_0_0 1_0_0_0 1.6110 V 4
O22 Si12 1_0_0_0 1_0_0_0 1.6100 V 4
O22 Si5 1_0_0_0 2_1_0_0 1.6100 V 4
O23 Si5 1_0_0_0 1_0_0_0 1.6100 V 4
O24 Si6 1_0_0_0 1_0_0_0 1.6100 V 4
O25 Si8 1_0_0_0 1_0_0_0 1.6100 V 4
O26 Si9 1_0_0_0 1_0_0_0 1.6110 V 4
O27 Si13 1_0_0_0 1_0_0_0 1.6110 V 2
O27 Si16 1_0_0_0 1_0_0_0 1.6120 V 2
O28 Si13 1_0_0_0 1_0_0_0 1.6080 V 2
O28 Si14 1_0_0_0 1_0_0_0 1.6090 V 2
O29 Si14 1_0_0_0 1_0_0_0 1.6090 V 2
O29 Si15 1_0_0_0 1_0_0_0 1.6120 V 2
O30 Si15 1_0_0_0 1_0_0_0 1.6080 V 2
O30 Si16 1_0_0_0 1_0_0_0 1.6090 V 2
O31 Si1 1_0_0_0 1_0_0_0 1.6100 V 4
O32 Si2 1_0_0_0 1_0_0_0 1.6100 V 4
O33 Si4 1_0_0_0 1_0_0_0 1.6100 V 4
O34 Si3 1_0_0_0 1_-1_0_0 1.6100 V 4
Lr2 Lr3 1_0_0_0 1_0_0_0 2.3790 V 4
Lr7 Lr8 1_0_0_0 1_0_0_0 10.5000 V 2
Lr7 Lr9 1_0_0_0 1_0_0_0 6.3710 V 2
Lr8 Lr15 1_0_0_0 1_0_0_0 4.1510 V 2
Lr8 Lr11 1_0_0_0 1_0_0_0 6.3710 V 2
Lr9 Lr16 1_0_0_0 1_0_0_0 4.0560 V 2
Lr10 Lr15 1_0_0_0 1_0_0_0 2.1990 V 2
Lr14 Lr16 1_0_0_0 1_0_0_0 2.2930 V 2
#End of data_103-TOPOS_ITG-PPT1

data_104-TOPOS_ITH-PPT1
_audit_creation_date                2025-02-23
_audit_creation_method              ToposPro
_chemical_formula_structural        ITH-PPT1
_chemical_formula_sum               'Lr19 O56 Si28'
_citation_special_details
;
Space Group: AMM2->A m m 2. File: ITH-PPT1.cif. 
;
_cell_length_a                      12.566
_cell_length_b                      11.662
_cell_length_c                      21.93
_cell_angle_alpha                   90
_cell_angle_beta                    90
_cell_angle_gamma                   90
_cell_volume                        3213.725
_cell_formula_units_Z               2
_symmetry_space_group_name_H-M      'A m m 2'
_symmetry_Int_Tables_number         38
_refine_ls_R_factor_all             0
loop_
_symmetry_equiv_pos_site_id
_symmetry_equiv_pos_as_xyz
1 x,y,z
2 -x,-y,z
3 -x,y,z
4 x,-y,z
5 x,1/2+y,1/2+z
6 -x,1/2-y,1/2+z
7 -x,1/2+y,1/2+z
8 x,1/2-y,1/2+z
loop_
_atom_site_label
_atom_site_type_symbol
_atom_site_symmetry_multiplicity
_atom_site_fract_x
_atom_site_fract_y
_atom_site_fract_z
_atom_site_occupancy
O1 O 8 0.68210 0.38720 0.34230 1.0000
O2 O 8 0.70050 0.33870 0.45860 1.0000
O3 O 8 0.60490 0.30510 0.68800 1.0000
O4 O 8 0.64750 0.28500 0.57080 1.0000
O5 O 8 0.80380 0.29350 0.65110 1.0000
O6 O 8 0.68140 0.11230 0.64490 1.0000
O7 O 8 0.83940 0.35320 0.76540 1.0000
O8 O 8 0.80980 0.21910 0.37760 1.0000
O9 O 8 0.39560 0.30570 0.88620 1.0000
O10 O 4 0.64020 0.50000 0.53490 1.0000
O11 O 4 0.85310 0.50000 0.85580 1.0000
O12 O 4 0.62690 0.50000 0.24410 1.0000
O13 O 4 0.87260 0.50000 0.67620 1.0000
O14 O 4 0.00000 0.34150 0.84170 1.0000
O15 O 4 0.00000 0.32360 0.69020 1.0000
O16 O 4 0.50000 0.35190 0.49370 1.0000
O17 O 4 0.50000 0.36270 0.78650 1.0000
O18 O 2 0.50000 0.50000 0.88170 1.0000
O19 O 2 0.50000 0.50000 0.69130 1.0000
O20 O 2 0.50000 0.50000 0.14870 1.0000
O21 O 2 0.50000 0.50000 0.33940 1.0000
Si1 Si 8 0.87880 0.36720 0.69590 1.0000
Si2 Si 8 0.68430 0.24970 0.63850 1.0000
Si3 Si 8 0.87510 0.36940 0.83540 1.0000
Si4 Si 8 0.70000 0.28560 0.39090 1.0000
Si5 Si 8 0.62190 0.36880 0.51440 1.0000
Si6 Si 4 0.62220 0.50000 0.17080 1.0000
Si7 Si 4 0.62230 0.50000 0.31740 1.0000
Si8 Si 4 0.50000 0.36830 0.85980 1.0000
Si9 Si 4 0.50000 0.36830 0.71330 1.0000
Lr1 Lr 8 0.67284 0.24216 0.76525 1.0000
Lr2 Lr 4 0.68970 0.50000 0.77230 1.0000
Lr3 Lr 4 0.67125 0.50000 0.64052 1.0000
Lr4 Lr 4 0.67135 0.50000 0.96807 1.0000
Lr5 Lr 4 0.50000 0.33352 0.26083 1.0000
Lr6 Lr 2 0.50000 0.50000 0.60382 1.0000
Lr7 Lr 2 0.50000 0.50000 0.41463 1.0000
Lr8 Lr 2 0.00000 0.50000 0.76565 1.0000
Lr9 Lr 2 0.00000 0.50000 0.49705 1.0000
Lr10 Lr 2 0.00000 0.50000 0.02918 1.0000
Lr11 Lr 2 0.00000 0.00000 0.76096 1.0000
Lr12 Lr 2 0.50000 0.00000 0.53683 1.0000
loop_
_topos_bond_atom_site_label_1
_topos_bond_atom_site_label_2
_topos_bond_site_symmetry_1
_topos_bond_site_symmetry_2
_topos_bond_distance
_topos_bond_type
_topos_bond_multiplicity
O1 Si4 1_0_0_0 1_0_0_0 1.6090 V 8
O1 Si7 1_0_0_0 1_0_0_0 1.6100 V 8
O2 Si4 1_0_0_0 1_0_0_0 1.6090 V 8
O2 Si5 1_0_0_0 1_0_0_0 1.6110 V 8
O3 Si9 1_0_0_0 1_0_0_0 1.6090 V 8
O3 Si2 1_0_0_0 1_0_0_0 1.6100 V 8
O4 Si2 1_0_0_0 1_0_0_0 1.6090 V 8
O4 Si5 1_0_0_0 1_0_0_0 1.6090 V 8
O5 Si1 1_0_0_0 1_0_0_0 1.6100 V 8
O5 Si2 1_0_0_0 1_0_0_0 1.6100 V 8
O6 Si2 1_0_0_0 1_0_0_0 1.6090 V 8
O6 Si6 1_0_0_0 5_0_-1_0 1.6100 V 8
O7 Si3 1_0_0_0 1_0_0_0 1.6100 V 8
O7 Si1 1_0_0_0 1_0_0_0 1.6110 V 8
O8 Si4 1_0_0_0 1_0_0_0 1.6090 V 8
O8 Si3 1_0_0_0 8_0_0_-1 1.6110 V 8
O9 Si8 1_0_0_0 1_0_0_0 1.6090 V 8
O9 Si4 1_0_0_0 6_1_0_0 1.6090 V 8
O10 Si5 1_0_0_0 1_0_0_0 1.6110 V 8
O11 Si3 1_0_0_0 1_0_0_0 1.6110 V 8
O12 Si7 1_0_0_0 1_0_0_0 1.6090 V 4
O12 Si6 1_0_0_0 1_0_0_0 1.6090 V 4
O13 Si1 1_0_0_0 1_0_0_0 1.6100 V 8
O14 Si3 1_0_0_0 1_-1_0_0 1.6090 V 8
O15 Si1 1_0_0_0 1_-1_0_0 1.6100 V 8
O16 Si5 1_0_0_0 1_0_0_0 1.6100 V 8
O17 Si9 1_0_0_0 1_0_0_0 1.6070 V 4
O17 Si8 1_0_0_0 1_0_0_0 1.6090 V 4
O18 Si8 1_0_0_0 1_0_0_0 1.6090 V 4
O19 Si9 1_0_0_0 1_0_0_0 1.6100 V 4
O20 Si6 1_0_0_0 1_0_0_0 1.6100 V 4
O21 Si7 1_0_0_0 1_0_0_0 1.6110 V 4
Lr1 Lr5 1_0_0_0 6_1_0_0 2.3460 V 8
Lr2 Lr3 1_0_0_0 1_0_0_0 2.8990 V 4
Lr3 Lr6 1_0_0_0 1_0_0_0 2.2980 V 4
Lr4 Lr10 1_0_0_0 1_1_0_1 4.3420 V 4
Lr4 Lr12 1_0_0_0 5_0_0_0 2.6290 V 4
Lr9 Lr11 1_0_0_0 5_0_0_-1 5.1770 V 2
Lr9 Lr10 1_0_0_0 5_0_-1_0 5.8730 V 4
Lr10 Lr11 1_0_0_0 5_0_0_-1 5.0830 V 2
#End of data_104-TOPOS_ITH-PPT1

data_105-TOPOS_-ITR-PPT1
_audit_creation_date                2025-02-23
_audit_creation_method              ToposPro
_chemical_formula_structural        -ITR-PPT1
_chemical_formula_sum               'Lr19 O56 Si28'
_citation_special_details
;
Space Group: CMCM->C m c m. File: -ITR-PPT1.cif. 
;
_cell_length_a                      11.673
_cell_length_b                      21.969
_cell_length_c                      25.17
_cell_angle_alpha                   90
_cell_angle_beta                    90
_cell_angle_gamma                   90
_cell_volume                        6454.699
_cell_formula_units_Z               4
_symmetry_space_group_name_H-M      'C m c m'
_symmetry_Int_Tables_number         63
_refine_ls_R_factor_all             0
loop_
_symmetry_equiv_pos_site_id
_symmetry_equiv_pos_as_xyz
1 x,y,z
2 -x,-y,1/2+z
3 x,-y,-z
4 -x,y,1/2-z
5 -x,-y,-z
6 x,y,1/2-z
7 -x,y,z
8 x,-y,1/2+z
9 1/2+x,1/2+y,z
10 1/2-x,1/2-y,1/2+z
11 1/2+x,1/2-y,-z
12 1/2-x,1/2+y,1/2-z
13 1/2-x,1/2-y,-z
14 1/2+x,1/2+y,1/2-z
15 1/2-x,1/2+y,z
16 1/2+x,1/2-y,1/2+z
loop_
_atom_site_label
_atom_site_type_symbol
_atom_site_symmetry_multiplicity
_atom_site_fract_x
_atom_site_fract_y
_atom_site_fract_z
_atom_site_occupancy
O1 O 16 0.30580 0.12010 0.19800 1.0000
O2 O 16 0.11270 0.07690 0.15900 1.0000
O3 O 16 0.28210 0.11250 0.09560 1.0000
O4 O 16 0.16170 0.19290 0.15030 1.0000
O5 O 16 0.28980 0.11300 0.59770 1.0000
O6 O 16 0.30540 0.07800 0.69760 1.0000
O7 O 16 0.11210 0.12080 0.65980 1.0000
O8 O 16 0.28590 0.19450 0.67480 1.0000
O9 O 16 0.14760 0.49940 0.57990 1.0000
O10 O 16 0.16480 0.42350 0.50000 1.0000
O11 O 8 0.15030 0.22950 0.25000 1.0000
O12 O 8 0.00000 0.26880 0.18020 1.0000
O13 O 8 0.00000 0.40960 0.57060 1.0000
O14 O 8 0.00000 0.41100 0.06990 1.0000
O15 O 8 0.00000 0.97890 0.18610 1.0000
O16 O 4 0.00000 0.38470 0.75000 1.0000
O17 O 4 0.00000 0.11590 0.75000 1.0000
O18 O 8 0.13780 0.47950 0.75000 1.0000
O19 O 4 0.00000 0.42570 0.25000 1.0000
O20 O 4 0.00000 0.07350 0.25000 1.0000
Si1 Si 16 0.21460 0.12530 0.15020 1.0000
Si2 Si 16 0.24940 0.12670 0.65760 1.0000
Si3 Si 16 0.13150 0.24910 0.18900 1.0000
Si4 Si 16 0.13140 0.42950 0.56180 1.0000
Si5 Si 16 0.13150 0.43090 0.06170 1.0000
Si6 Si 8 0.13170 0.44740 0.25000 1.0000
Si7 Si 8 0.00000 0.05210 0.18880 1.0000
Si8 Si 8 0.00000 0.09420 0.68890 1.0000
Si9 Si 8 0.13170 0.40640 0.75000 1.0000
Lr1 Lr 16 0.24221 0.99986 0.16363 1.0000
Lr2 Lr 8 0.83354 0.99540 0.25000 1.0000
Lr3 Lr 8 0.00000 0.23392 0.50000 1.0000
Lr4 Lr 8 0.00000 0.49317 0.65522 1.0000
Lr5 Lr 4 0.00000 0.33844 0.25000 1.0000
Lr6 Lr 4 0.00000 0.14908 0.25000 1.0000
Lr7 Lr 4 0.00000 0.50000 0.50000 1.0000
Lr8 Lr 4 0.50000 0.50000 0.50000 1.0000
Lr9 Lr 4 0.50000 0.27136 0.25000 1.0000
Lr10 Lr 8 0.50000 0.20267 0.16419 1.0000
Lr11 Lr 8 0.50000 0.12483 0.66457 1.0000
loop_
_topos_bond_atom_site_label_1
_topos_bond_atom_site_label_2
_topos_bond_site_symmetry_1
_topos_bond_site_symmetry_2
_topos_bond_distance
_topos_bond_type
_topos_bond_multiplicity
O1 Si1 1_0_0_0 1_0_0_0 1.6110 V 16
O1 Si9 1_0_0_0 10_0_0_-1 1.6080 V 16
O2 Si7 1_0_0_0 1_0_0_0 1.6090 V 16
O2 Si1 1_0_0_0 1_0_0_0 1.6110 V 16
O3 Si1 1_0_0_0 1_0_0_0 1.6090 V 16
O3 Si4 1_0_0_0 10_0_0_-1 1.6110 V 16
O4 Si1 1_0_0_0 1_0_0_0 1.6080 V 16
O4 Si3 1_0_0_0 1_0_0_0 1.6120 V 16
O5 Si2 1_0_0_0 1_0_0_0 1.6080 V 16
O5 Si5 1_0_0_0 10_0_0_0 1.6110 V 16
O6 Si2 1_0_0_0 1_0_0_0 1.6080 V 16
O6 Si6 1_0_0_0 10_0_0_0 1.6090 V 16
O7 Si2 1_0_0_0 1_0_0_0 1.6090 V 16
O7 Si8 1_0_0_0 1_0_0_0 1.6090 V 16
O8 Si2 1_0_0_0 1_0_0_0 1.6090 V 16
O8 Si3 1_0_0_0 10_0_0_0 1.6100 V 16
O9 Si4 1_0_0_0 1_0_0_0 1.6130 V 16
O9 Si5 1_0_0_0 8_0_1_0 1.6090 V 16
O10 Si4 1_0_0_0 1_0_0_0 1.6090 V 16
O10 Si5 1_0_0_0 6_0_0_0 1.6090 V 16
O11 Si3 1_0_0_0 1_0_0_0 1.6100 V 16
O12 Si3 1_0_0_0 1_0_0_0 1.6100 V 16
O13 Si4 1_0_0_0 1_0_0_0 1.6100 V 16
O14 Si5 1_0_0_0 1_0_0_0 1.6090 V 16
O15 Si8 1_0_0_0 2_0_1_-1 1.6070 V 8
O15 Si7 1_0_0_0 1_0_1_0 1.6100 V 8
O16 Si9 1_0_0_0 1_0_0_0 1.6100 V 8
O17 Si8 1_0_0_0 1_0_0_0 1.6100 V 8
O18 Si6 1_0_0_0 3_0_1_1 1.6080 V 8
O18 Si9 1_0_0_0 1_0_0_0 1.6080 V 8
O19 Si6 1_0_0_0 1_0_0_0 1.6100 V 8
O20 Si7 1_0_0_0 1_0_0_0 1.6110 V 8
Lr1 Lr2 1_0_0_0 4_1_0_0 2.3490 V 16
Lr3 Lr8 1_0_0_0 9_-1_-1_0 5.1390 V 8
Lr3 Lr10 1_0_0_0 10_0_0_0 4.3610 V 8
Lr3 Lr3 1_0_0_0 11_-1_0_1 5.8790 V 8
Lr4 Lr11 1_0_0_0 9_-1_0_0 2.9020 V 8
Lr5 Lr11 1_0_0_0 11_-1_0_1 2.2970 V 8
Lr9 Lr10 1_0_0_0 1_0_0_0 2.6350 V 8
#End of data_105-TOPOS_-ITR-PPT1

data_106-TOPOS_ITT-PPT1
_audit_creation_date                2025-02-23
_audit_creation_method              ToposPro
_chemical_formula_structural        ITT-PPT1
_chemical_formula_sum               'Lr12 O46 Si23'
_citation_special_details
;
Space Group: P6/MMM->P 6/m m m. File: ITT-PPT1.cif. 
;
_cell_length_a                      18.8677
_cell_length_b                      18.8677
_cell_length_c                      11.6333
_cell_angle_alpha                   90
_cell_angle_beta                    90
_cell_angle_gamma                   120
_cell_volume                        3586.506
_cell_formula_units_Z               2
_symmetry_space_group_name_H-M      'P 6/m m m'
_symmetry_Int_Tables_number         191
_refine_ls_R_factor_all             0
loop_
_symmetry_equiv_pos_site_id
_symmetry_equiv_pos_as_xyz
1 x,y,z
2 -x,-y,z
3 -y,x-y,z
4 -x+y,-x,z
5 x-y,x,z
6 y,-x+y,z
7 x-y,-y,-z
8 -x,-x+y,-z
9 y,x,-z
10 -y,-x,-z
11 x,x-y,-z
12 -x+y,y,-z
13 -x,-y,-z
14 x,y,-z
15 y,-x+y,-z
16 x-y,x,-z
17 -x+y,-x,-z
18 -y,x-y,-z
19 -x+y,y,z
20 x,x-y,z
21 -y,-x,z
22 y,x,z
23 -x,-x+y,z
24 x-y,-y,z
loop_
_atom_site_label
_atom_site_type_symbol
_atom_site_symmetry_multiplicity
_atom_site_fract_x
_atom_site_fract_y
_atom_site_fract_z
_atom_site_occupancy
O1 O 24 0.29082 0.44060 0.28913 1.0000
O2 O 12 0.28696 0.57392 0.31615 1.0000
O3 O 12 0.34651 0.45712 0.50000 1.0000
O4 O 12 0.40578 0.40578 0.33599 1.0000
O5 O 12 0.44083 0.55917 0.33995 1.0000
O6 O 12 0.25240 0.74760 0.11250 1.0000
O7 O 2 0.33333 0.66667 0.50000 1.0000
O8 O 6 0.37930 0.75860 0.00000 1.0000
Si1 Si 24 0.37113 0.46612 0.36613 1.0000
Si2 Si 12 0.24401 0.48802 0.24872 1.0000
Si3 Si 6 0.28108 0.71892 0.00000 1.0000
Si4 Si 4 0.33333 0.66667 0.36197 1.0000
Lr1 Lr 4 0.33333 0.66667 0.84170 1.0000
Lr2 Lr 3 0.50000 0.50000 0.50000 1.0000
Lr3 Lr 3 0.50000 0.50000 0.00000 1.0000
Lr4 Lr 6 0.39887 0.60113 0.50000 1.0000
Lr5 Lr 1 0.00000 0.00000 0.50000 1.0000
Lr6 Lr 6 0.26087 0.52173 0.50000 1.0000
Lr7 Lr 1 0.00000 0.00000 0.00000 1.0000
loop_
_topos_bond_atom_site_label_1
_topos_bond_atom_site_label_2
_topos_bond_site_symmetry_1
_topos_bond_site_symmetry_2
_topos_bond_distance
_topos_bond_type
_topos_bond_multiplicity
O1 Si2 1_0_0_0 1_0_0_0 1.6100 V 24
O1 Si1 1_0_0_0 1_0_0_0 1.6130 V 24
O2 Si4 1_0_0_0 1_0_0_0 1.6060 V 12
O2 Si2 1_0_0_0 1_0_0_0 1.6080 V 12
O3 Si1 1_0_0_0 1_0_0_0 1.6100 V 24
O4 Si1 1_0_0_0 1_0_0_0 1.6100 V 24
O5 Si1 1_0_0_0 1_0_0_0 1.6110 V 24
O6 Si2 1_0_0_0 4_0_1_0 1.6080 V 12
O6 Si3 1_0_0_0 1_0_0_0 1.6100 V 12
O7 Si4 1_0_0_0 1_0_0_0 1.6060 V 4
O8 Si3 1_0_0_0 1_0_0_0 1.6150 V 12
Lr3 Lr7 1_0_0_0 1_1_1_0 9.4340 V 6
Lr4 Lr6 1_0_0_0 1_0_0_0 2.2640 V 12
Lr5 Lr7 1_0_0_0 1_0_0_0 5.8170 V 2
#End of data_106-TOPOS_ITT-PPT1

data_107-TOPOS_ITW-PPT1
_audit_creation_date                2025-02-23
_audit_creation_method              ToposPro
_chemical_formula_structural        ITW-PPT1
_chemical_formula_sum               'Lr1 O6 Si3'
_citation_special_details
;
Space Group: C2/M->C 2/m. File: ITW-PPT1.cif. 
;
_cell_length_a                      10.45
_cell_length_b                      15.028
_cell_length_c                      8.954
_cell_angle_alpha                   90
_cell_angle_beta                    105.64
_cell_angle_gamma                   90
_cell_volume                        1354.096
_cell_formula_units_Z               8
_symmetry_space_group_name_H-M      'C 2/m'
_symmetry_Int_Tables_number         12
_refine_ls_R_factor_all             0
loop_
_symmetry_equiv_pos_site_id
_symmetry_equiv_pos_as_xyz
1 x,y,z
2 -x,y,-z
3 -x,-y,-z
4 x,-y,z
5 1/2+x,1/2+y,z
6 1/2-x,1/2+y,-z
7 1/2-x,1/2-y,-z
8 1/2+x,1/2-y,z
loop_
_atom_site_label
_atom_site_type_symbol
_atom_site_symmetry_multiplicity
_atom_site_fract_x
_atom_site_fract_y
_atom_site_fract_z
_atom_site_occupancy
O1 O 8 0.30940 0.16410 0.77150 1.0000
O2 O 8 0.34670 0.33670 0.80110 1.0000
O3 O 8 0.43670 0.38950 0.26860 1.0000
O4 O 8 0.34230 0.36610 0.50980 1.0000
O5 O 4 0.50000 0.22660 0.00000 1.0000
O6 O 4 0.25000 0.25000 0.00000 1.0000
O7 O 4 0.25810 0.50000 0.31960 1.0000
O8 O 4 0.36320 0.50000 0.70350 1.0000
Si1 Si 8 0.35160 0.24450 0.89390 1.0000
Si2 Si 8 0.30670 0.39790 0.33170 1.0000
Si3 Si 8 0.40390 0.39790 0.68630 1.0000
Lr1 Lr 4 0.40918 0.50000 0.07297 1.0000
Lr2 Lr 2 0.50000 0.50000 0.50000 1.0000
Lr3 Lr 2 0.00000 0.50000 0.50000 1.0000
loop_
_topos_bond_atom_site_label_1
_topos_bond_atom_site_label_2
_topos_bond_site_symmetry_1
_topos_bond_site_symmetry_2
_topos_bond_distance
_topos_bond_type
_topos_bond_multiplicity
O1 Si1 1_0_0_0 1_0_0_0 1.6110 V 8
O1 Si2 1_0_0_0 7_0_0_1 1.6090 V 8
O2 Si1 1_0_0_0 1_0_0_0 1.6090 V 8
O2 Si3 1_0_0_0 1_0_0_0 1.6100 V 8
O3 Si2 1_0_0_0 1_0_0_0 1.6110 V 8
O3 Si3 1_0_0_0 2_1_0_1 1.6100 V 8
O4 Si2 1_0_0_0 1_0_0_0 1.6090 V 8
O4 Si3 1_0_0_0 1_0_0_0 1.6100 V 8
O5 Si1 1_0_0_0 1_0_0_-1 1.6080 V 8
O6 Si1 1_0_0_0 1_0_0_-1 1.6060 V 8
O7 Si2 1_0_0_0 1_0_0_0 1.6110 V 8
O8 Si3 1_0_0_0 1_0_0_0 1.6110 V 8
Lr1 Lr3 1_0_0_0 1_0_0_-1 5.7250 V 4
Lr1 Lr1 1_0_0_0 2_1_0_0 2.5780 V 2
Lr3 Lr3 1_0_0_0 1_0_0_1 8.9540 V 2
#End of data_107-TOPOS_ITW-PPT1

data_108-TOPOS_IWR-PPT1
_audit_creation_date                2025-02-23
_audit_creation_method              ToposPro
_chemical_formula_structural        IWR-PPT1
_chemical_formula_sum               'Lr17 O56 Si28'
_citation_special_details
;
Space Group: CMMM->C m m m. File: IWR-PPT1.cif. 
;
_cell_length_a                      21.233
_cell_length_b                      13.302
_cell_length_c                      12.676
_cell_angle_alpha                   90
_cell_angle_beta                    90
_cell_angle_gamma                   90
_cell_volume                        3580.227
_cell_formula_units_Z               2
_symmetry_space_group_name_H-M      'C m m m'
_symmetry_Int_Tables_number         65
_refine_ls_R_factor_all             0
loop_
_symmetry_equiv_pos_site_id
_symmetry_equiv_pos_as_xyz
1 x,y,z
2 -x,-y,z
3 x,-y,-z
4 -x,y,-z
5 -x,-y,-z
6 x,y,-z
7 -x,y,z
8 x,-y,z
9 1/2+x,1/2+y,z
10 1/2-x,1/2-y,z
11 1/2+x,1/2-y,-z
12 1/2-x,1/2+y,-z
13 1/2-x,1/2-y,-z
14 1/2+x,1/2+y,-z
15 1/2-x,1/2+y,z
16 1/2+x,1/2-y,z
loop_
_atom_site_label
_atom_site_type_symbol
_atom_site_symmetry_multiplicity
_atom_site_fract_x
_atom_site_fract_y
_atom_site_fract_z
_atom_site_occupancy
O1 O 16 0.09900 0.17230 0.10370 1.0000
O2 O 16 0.11810 0.18470 0.30750 1.0000
O3 O 16 0.21000 0.12630 0.18120 1.0000
O4 O 16 0.17220 0.31430 0.17880 1.0000
O5 O 4 0.00000 0.11000 0.00000 1.0000
O6 O 4 0.10220 0.00000 0.00000 1.0000
O7 O 8 0.09130 0.12680 0.50000 1.0000
O8 O 8 0.07950 0.00000 0.34230 1.0000
O9 O 8 0.29940 0.00000 0.12620 1.0000
O10 O 8 0.00000 0.15030 0.36180 1.0000
O11 O 8 0.26890 0.14910 0.00000 1.0000
Si1 Si 16 0.07200 0.11560 0.37770 1.0000
Si2 Si 16 0.15000 0.19940 0.19330 1.0000
Si3 Si 16 0.27650 0.11530 0.12130 1.0000
Si4 Si 8 0.07560 0.11350 0.00000 1.0000
Lr1 Lr 4 0.18572 0.00000 0.00000 1.0000
Lr2 Lr 8 0.14353 0.00000 0.17307 1.0000
Lr3 Lr 2 0.00000 0.00000 0.50000 1.0000
Lr4 Lr 4 0.00000 0.00000 0.19033 1.0000
Lr5 Lr 2 0.00000 0.50000 0.50000 1.0000
Lr6 Lr 4 0.25000 0.25000 0.50000 1.0000
Lr7 Lr 4 0.25000 0.25000 0.00000 1.0000
Lr8 Lr 2 0.50000 0.00000 0.00000 1.0000
Lr9 Lr 4 0.00000 0.50000 0.17307 1.0000
loop_
_topos_bond_atom_site_label_1
_topos_bond_atom_site_label_2
_topos_bond_site_symmetry_1
_topos_bond_site_symmetry_2
_topos_bond_distance
_topos_bond_type
_topos_bond_multiplicity
O1 Si4 1_0_0_0 1_0_0_0 1.6080 V 16
O1 Si2 1_0_0_0 1_0_0_0 1.6100 V 16
O2 Si2 1_0_0_0 1_0_0_0 1.6100 V 16
O2 Si1 1_0_0_0 1_0_0_0 1.6110 V 16
O3 Si3 1_0_0_0 1_0_0_0 1.6100 V 16
O3 Si2 1_0_0_0 1_0_0_0 1.6100 V 16
O4 Si2 1_0_0_0 1_0_0_0 1.6100 V 16
O4 Si3 1_0_0_0 10_0_0_0 1.6110 V 16
O5 Si4 1_0_0_0 1_0_0_0 1.6060 V 8
O6 Si4 1_0_0_0 1_0_0_0 1.6120 V 8
O7 Si1 1_0_0_0 1_0_0_0 1.6100 V 16
O8 Si1 1_0_0_0 1_0_0_0 1.6100 V 16
O9 Si3 1_0_0_0 1_0_0_0 1.6100 V 16
O10 Si1 1_0_0_0 1_0_0_0 1.6100 V 16
O11 Si3 1_0_0_0 1_0_0_0 1.6100 V 16
Lr1 Lr2 1_0_0_0 1_0_0_0 2.3700 V 8
Lr5 Lr6 1_0_0_0 1_0_0_0 6.2640 V 8
Lr5 Lr9 1_0_0_0 1_0_0_0 4.1440 V 4
Lr8 Lr9 1_0_0_0 11_0_0_0 2.1940 V 4
#End of data_108-TOPOS_IWR-PPT1

data_109-TOPOS_IWS-PPT1
_audit_creation_date                2025-02-23
_audit_creation_method              ToposPro
_chemical_formula_structural        IWS-PPT1
_chemical_formula_sum               'Lr41 O136 Si68'
_citation_special_details
;
Space Group: I4/MMM->I 4/m m m. File: IWS-PPT1.cif. 
;
_cell_length_a                      26.689
_cell_length_b                      26.689
_cell_length_c                      12.908
_cell_angle_alpha                   90
_cell_angle_beta                    90
_cell_angle_gamma                   90
_cell_volume                        9194.403
_cell_formula_units_Z               2
_symmetry_space_group_name_H-M      'I 4/m m m'
_symmetry_Int_Tables_number         139
_refine_ls_R_factor_all             0
loop_
_symmetry_equiv_pos_site_id
_symmetry_equiv_pos_as_xyz
1 x,y,z
2 -x,-y,z
3 x,-y,-z
4 -x,y,-z
5 -y,-x,-z
6 y,x,-z
7 y,-x,z
8 -y,x,z
9 -x,-y,-z
10 x,y,-z
11 -x,y,z
12 x,-y,z
13 y,x,z
14 -y,-x,z
15 -y,x,-z
16 y,-x,-z
17 1/2+x,1/2+y,1/2+z
18 1/2-x,1/2-y,1/2+z
19 1/2+x,1/2-y,1/2-z
20 1/2-x,1/2+y,1/2-z
21 1/2-y,1/2-x,1/2-z
22 1/2+y,1/2+x,1/2-z
23 1/2+y,1/2-x,1/2+z
24 1/2-y,1/2+x,1/2+z
25 1/2-x,1/2-y,1/2-z
26 1/2+x,1/2+y,1/2-z
27 1/2-x,1/2+y,1/2+z
28 1/2+x,1/2-y,1/2+z
29 1/2+y,1/2+x,1/2+z
30 1/2-y,1/2-x,1/2+z
31 1/2-y,1/2+x,1/2-z
32 1/2+y,1/2-x,1/2-z
loop_
_atom_site_label
_atom_site_type_symbol
_atom_site_symmetry_multiplicity
_atom_site_fract_x
_atom_site_fract_y
_atom_site_fract_z
_atom_site_occupancy
O1 O 32 0.06320 0.26030 0.15330 1.0000
O2 O 32 0.08860 0.35360 0.19420 1.0000
O3 O 32 0.09870 0.17010 0.18240 1.0000
O4 O 32 0.08640 0.45090 0.16460 1.0000
O5 O 16 0.07890 0.32340 0.00000 1.0000
O6 O 16 0.06540 0.19580 0.00000 1.0000
O7 O 16 0.00000 0.33410 0.11860 1.0000
O8 O 16 0.00000 0.18520 0.15010 1.0000
O9 O 16 0.00000 0.06970 0.35710 1.0000
O10 O 8 0.07040 0.07040 0.50000 1.0000
O11 O 16 0.09230 0.09230 0.30670 1.0000
O12 O 16 0.08300 0.08300 0.10300 1.0000
O13 O 8 0.00000 0.07000 0.00000 1.0000
O14 O 8 0.00000 0.50000 0.33540 1.0000
O15 O 8 0.00000 0.44240 0.50000 1.0000
Si1 Si 32 0.05800 0.31770 0.11650 1.0000
Si2 Si 32 0.05650 0.20220 0.12260 1.0000
Si3 Si 16 0.00000 0.44280 0.37550 1.0000
Si4 Si 16 0.05800 0.05800 0.38070 1.0000
Si5 Si 16 0.11150 0.11150 0.19540 1.0000
Si6 Si 16 0.09260 0.40740 0.25000 1.0000
Si7 Si 8 0.05910 0.05910 0.00000 1.0000
Lr1 Lr 16 0.21691 0.42016 0.00000 1.0000
Lr2 Lr 16 0.00000 0.10770 0.17468 1.0000
Lr3 Lr 8 0.00000 0.25995 0.00000 1.0000
Lr4 Lr 8 0.00000 0.41329 0.00000 1.0000
Lr5 Lr 8 0.00000 0.13730 0.00000 1.0000
Lr6 Lr 8 0.00000 0.23967 0.50000 1.0000
Lr7 Lr 8 0.25715 0.25715 0.00000 1.0000
Lr8 Lr 2 0.00000 0.00000 0.50000 1.0000
Lr9 Lr 4 0.00000 0.00000 0.19203 1.0000
Lr10 Lr 4 0.00000 0.50000 0.25000 1.0000
loop_
_topos_bond_atom_site_label_1
_topos_bond_atom_site_label_2
_topos_bond_site_symmetry_1
_topos_bond_site_symmetry_2
_topos_bond_distance
_topos_bond_type
_topos_bond_multiplicity
O1 Si1 1_0_0_0 1_0_0_0 1.6100 V 32
O1 Si2 1_0_0_0 1_0_0_0 1.6100 V 32
O2 Si1 1_0_0_0 1_0_0_0 1.6100 V 32
O2 Si6 1_0_0_0 1_0_0_0 1.6100 V 32
O3 Si5 1_0_0_0 1_0_0_0 1.6100 V 32
O3 Si2 1_0_0_0 1_0_0_0 1.6120 V 32
O4 Si6 1_0_0_0 1_0_0_0 1.6090 V 32
O4 Si3 1_0_0_0 21_0_0_0 1.6100 V 32
O5 Si1 1_0_0_0 1_0_0_0 1.6110 V 32
O6 Si2 1_0_0_0 1_0_0_0 1.6090 V 32
O7 Si1 1_0_0_0 1_0_0_0 1.6090 V 32
O8 Si2 1_0_0_0 1_0_0_0 1.6140 V 32
O9 Si4 1_0_0_0 1_0_0_0 1.6080 V 32
O10 Si4 1_0_0_0 1_0_0_0 1.6090 V 16
O11 Si4 1_0_0_0 1_0_0_0 1.6090 V 16
O11 Si5 1_0_0_0 1_0_0_0 1.6090 V 16
O12 Si5 1_0_0_0 1_0_0_0 1.6060 V 16
O12 Si7 1_0_0_0 1_0_0_0 1.6070 V 16
O13 Si7 1_0_0_0 1_0_0_0 1.6040 V 16
O14 Si3 1_0_0_0 1_0_0_0 1.6120 V 16
O15 Si3 1_0_0_0 1_0_0_0 1.6070 V 16
Lr1 Lr7 1_0_0_0 1_0_0_0 4.4810 V 16
Lr1 Lr6 1_0_0_0 21_0_0_0 2.4260 V 16
Lr2 Lr5 1_0_0_0 1_0_0_0 2.3890 V 16
Lr2 Lr9 1_0_0_0 1_0_0_0 2.8830 V 16
Lr7 Lr7 1_0_0_0 18_0_0_-1 6.4770 V 8
#End of data_109-TOPOS_IWS-PPT1

data_110-TOPOS_IWV-PPT1
_audit_creation_date                2025-02-23
_audit_creation_method              ToposPro
_chemical_formula_structural        IWV-PPT1
_chemical_formula_sum               'Lr8 O38 Si19'
_citation_special_details
;
Space Group: FMMM->F m m m. File: IWV-PPT1.cif. 
;
_cell_length_a                      27.826
_cell_length_b                      26.081
_cell_length_c                      13.944
_cell_angle_alpha                   90
_cell_angle_beta                    90
_cell_angle_gamma                   90
_cell_volume                        10119.58
_cell_formula_units_Z               8
_symmetry_space_group_name_H-M      'F m m m'
_symmetry_Int_Tables_number         69
_refine_ls_R_factor_all             0
loop_
_symmetry_equiv_pos_site_id
_symmetry_equiv_pos_as_xyz
1 x,y,z
2 -x,-y,z
3 x,-y,-z
4 -x,y,-z
5 -x,-y,-z
6 x,y,-z
7 -x,y,z
8 x,-y,z
9 x,1/2+y,1/2+z
10 1/2+x,y,1/2+z
11 1/2+x,1/2+y,z
12 -x,1/2-y,1/2+z
13 1/2-x,-y,1/2+z
14 1/2-x,1/2-y,z
15 x,1/2-y,1/2-z
16 1/2+x,-y,1/2-z
17 1/2+x,1/2-y,-z
18 -x,1/2+y,1/2-z
19 1/2-x,y,1/2-z
20 1/2-x,1/2+y,-z
21 -x,1/2-y,1/2-z
22 1/2-x,-y,1/2-z
23 1/2-x,1/2-y,-z
24 x,1/2+y,1/2-z
25 1/2+x,y,1/2-z
26 1/2+x,1/2+y,-z
27 -x,1/2+y,1/2+z
28 1/2-x,y,1/2+z
29 1/2-x,1/2+y,z
30 x,1/2-y,1/2+z
31 1/2+x,-y,1/2+z
32 1/2+x,1/2-y,z
loop_
_atom_site_label
_atom_site_type_symbol
_atom_site_symmetry_multiplicity
_atom_site_fract_x
_atom_site_fract_y
_atom_site_fract_z
_atom_site_occupancy
O1 O 32 0.08870 0.09200 0.18240 1.0000
O2 O 32 0.16990 0.09790 0.09360 1.0000
O3 O 32 0.15870 0.15240 0.24790 1.0000
O4 O 32 0.16710 0.05060 0.25700 1.0000
O5 O 32 0.30680 0.19100 0.90330 1.0000
O6 O 8 0.25000 0.00000 0.25000 1.0000
O7 O 16 0.30470 0.00000 0.09460 1.0000
O8 O 16 0.06030 0.00000 0.13370 1.0000
O9 O 16 0.07080 0.07030 0.00000 1.0000
O10 O 16 0.23450 0.15130 0.00000 1.0000
O11 O 16 0.23860 0.05050 0.00000 1.0000
O12 O 16 0.00000 0.07730 0.12390 1.0000
O13 O 8 0.25000 0.25000 0.00000 1.0000
O14 O 16 0.25000 0.17950 0.25000 1.0000
O15 O 16 0.31700 0.25000 0.25000 1.0000
Si1 Si 32 0.14570 0.09850 0.19830 1.0000
Si2 Si 32 0.05510 0.06010 0.10950 1.0000
Si3 Si 32 0.30300 0.19360 0.21200 1.0000
Si4 Si 16 0.30420 0.00000 0.21010 1.0000
Si5 Si 16 0.27550 0.19480 0.00000 1.0000
Si6 Si 16 0.20340 0.09940 0.00000 1.0000
Si7 Si 8 0.27160 0.00000 0.00000 1.0000
Lr1 Lr 32 0.25006 0.09760 0.16667 1.0000
Lr2 Lr 8 0.16544 0.00000 0.00000 1.0000
Lr3 Lr 4 0.00000 0.00000 0.00000 1.0000
Lr4 Lr 4 0.00000 0.50000 0.00000 1.0000
Lr5 Lr 16 0.25000 0.25000 0.16667 1.0000
loop_
_topos_bond_atom_site_label_1
_topos_bond_atom_site_label_2
_topos_bond_site_symmetry_1
_topos_bond_site_symmetry_2
_topos_bond_distance
_topos_bond_type
_topos_bond_multiplicity
O1 Si1 1_0_0_0 1_0_0_0 1.6100 V 32
O1 Si2 1_0_0_0 1_0_0_0 1.6120 V 32
O2 Si6 1_0_0_0 1_0_0_0 1.6040 V 32
O2 Si1 1_0_0_0 1_0_0_0 1.6080 V 32
O3 Si1 1_0_0_0 1_0_0_0 1.6080 V 32
O3 Si3 1_0_0_0 19_0_0_0 1.6130 V 32
O4 Si1 1_0_0_0 1_0_0_0 1.6080 V 32
O4 Si4 1_0_0_0 19_0_0_0 1.6090 V 32
O5 Si5 1_0_0_0 1_0_0_1 1.6080 V 32
O5 Si3 1_0_0_0 6_0_0_1 1.6130 V 32
O6 Si4 1_0_0_0 1_0_0_0 1.6080 V 16
O7 Si7 1_0_0_0 1_0_0_0 1.6090 V 16
O7 Si4 1_0_0_0 1_0_0_0 1.6110 V 16
O8 Si2 1_0_0_0 1_0_0_0 1.6100 V 32
O9 Si2 1_0_0_0 1_0_0_0 1.6100 V 32
O10 Si6 1_0_0_0 1_0_0_0 1.6070 V 16
O10 Si5 1_0_0_0 1_0_0_0 1.6090 V 16
O11 Si7 1_0_0_0 1_0_0_0 1.6060 V 16
O11 Si6 1_0_0_0 1_0_0_0 1.6080 V 16
O12 Si2 1_0_0_0 1_0_0_0 1.6100 V 32
O13 Si5 1_0_0_0 1_0_0_0 1.6050 V 16
O14 Si3 1_0_0_0 1_0_0_0 1.6100 V 32
O15 Si3 1_0_0_0 1_0_0_0 1.6110 V 32
Lr1 Lr1 1_0_0_0 19_0_0_0 2.3240 V 16
Lr4 Lr4 1_0_0_0 9_0_0_-1 14.7870 V 8
Lr5 Lr5 1_0_0_0 19_0_0_0 2.3240 V 8
#End of data_110-TOPOS_IWV-PPT1

data_111-TOPOS_IWW-PPT1
_audit_creation_date                2025-02-23
_audit_creation_method              ToposPro
_chemical_formula_structural        IWW-PPT1
_chemical_formula_sum               'Lr15 O56 Si28'
_citation_special_details
;
Space Group: PBAM->P b a m. File: IWW-PPT1.cif. 
;
_cell_length_a                      41.691
_cell_length_b                      12.713
_cell_length_c                      12.711
_cell_angle_alpha                   90
_cell_angle_beta                    90
_cell_angle_gamma                   90
_cell_volume                        6737.055
_cell_formula_units_Z               4
_symmetry_space_group_name_H-M      'P b a m'
_symmetry_Int_Tables_number         55
_refine_ls_R_factor_all             0
loop_
_symmetry_equiv_pos_site_id
_symmetry_equiv_pos_as_xyz
1 x,y,z
2 -x,-y,z
3 1/2+x,1/2-y,-z
4 1/2-x,1/2+y,-z
5 -x,-y,-z
6 x,y,-z
7 1/2-x,1/2+y,z
8 1/2+x,1/2-y,z
loop_
_atom_site_label
_atom_site_type_symbol
_atom_site_symmetry_multiplicity
_atom_site_fract_x
_atom_site_fract_y
_atom_site_fract_z
_atom_site_occupancy
O1 O 8 0.40990 0.81230 0.13820 1.0000
O2 O 8 0.34770 0.83980 0.15470 1.0000
O3 O 8 0.38640 0.99730 0.19410 1.0000
O4 O 8 0.38800 0.61960 0.15680 1.0000
O5 O 8 0.44870 0.65750 0.19310 1.0000
O6 O 8 0.32580 0.64690 0.13530 1.0000
O7 O 8 0.34850 0.46210 0.19250 1.0000
O8 O 8 0.28700 0.79980 0.19390 1.0000
O9 O 8 0.38910 0.96180 0.39670 1.0000
O10 O 8 0.44100 0.68060 0.39650 1.0000
O11 O 8 0.34720 0.49410 0.39650 1.0000
O12 O 8 0.29500 0.77500 0.39680 1.0000
O13 O 8 0.32330 0.32010 0.31770 1.0000
O14 O 8 0.38560 0.35040 0.31750 1.0000
O15 O 8 0.34260 0.07800 0.32090 1.0000
O16 O 8 0.40170 0.15070 0.32380 1.0000
O17 O 8 0.23940 0.84060 0.32350 1.0000
O18 O 8 0.28980 0.96510 0.31830 1.0000
O19 O 8 0.45450 0.49390 0.32040 1.0000
O20 O 8 0.49830 0.64260 0.32060 1.0000
O21 O 8 0.28770 0.16170 0.37890 1.0000
O22 O 8 0.44380 0.29660 0.37410 1.0000
O23 O 4 0.37940 0.92960 0.00000 1.0000
O24 O 4 0.42640 0.66800 0.00000 1.0000
O25 O 4 0.35750 0.52960 0.00000 1.0000
O26 O 4 0.30840 0.79280 0.00000 1.0000
O27 O 4 0.39710 0.78560 0.50000 1.0000
O28 O 4 0.34060 0.87590 0.50000 1.0000
O29 O 4 0.39550 0.57960 0.50000 1.0000
O30 O 4 0.33900 0.67000 0.50000 1.0000
O31 O 4 0.29340 0.32800 0.50000 1.0000
O32 O 4 0.31540 0.02150 0.50000 1.0000
O33 O 4 0.39520 0.25750 0.50000 1.0000
O34 O 4 0.47660 0.42020 0.50000 1.0000
Si1 Si 8 0.38100 0.89480 0.12170 1.0000
Si2 Si 8 0.41830 0.68980 0.12190 1.0000
Si3 Si 8 0.35490 0.56470 0.12140 1.0000
Si4 Si 8 0.31720 0.76960 0.12100 1.0000
Si5 Si 8 0.35120 0.40670 0.30600 1.0000
Si6 Si 8 0.37980 0.04740 0.30840 1.0000
Si7 Si 8 0.27770 0.84530 0.30810 1.0000
Si8 Si 8 0.46060 0.61830 0.30710 1.0000
Si9 Si 8 0.29110 0.28790 0.38010 1.0000
Si10 Si 8 0.30900 0.05610 0.37990 1.0000
Si11 Si 8 0.40650 0.26350 0.37910 1.0000
Si12 Si 8 0.46910 0.39220 0.37900 1.0000
Si13 Si 4 0.37870 0.89690 0.50000 1.0000
Si14 Si 4 0.41870 0.68090 0.50000 1.0000
Si15 Si 4 0.35740 0.55870 0.50000 1.0000
Si16 Si 4 0.31740 0.77470 0.50000 1.0000
Lr1 Lr 8 0.36322 0.75415 0.31504 1.0000
Lr2 Lr 8 0.40459 0.52185 0.32681 1.0000
Lr3 Lr 8 0.28891 0.58969 0.33047 1.0000
Lr4 Lr 4 0.36785 0.72973 0.00000 1.0000
Lr5 Lr 4 0.28402 0.10787 0.00000 1.0000
Lr6 Lr 4 0.23721 0.03777 0.50000 1.0000
Lr7 Lr 4 0.35094 0.21490 0.50000 1.0000
Lr8 Lr 4 0.41509 0.46010 0.50000 1.0000
Lr9 Lr 4 0.32864 0.94615 0.50000 1.0000
Lr10 Lr 2 0.50000 0.00000 0.00000 1.0000
Lr11 Lr 2 0.50000 0.50000 0.00000 1.0000
Lr12 Lr 2 0.50000 0.50000 0.50000 1.0000
Lr13 Lr 2 0.50000 0.00000 0.50000 1.0000
Lr14 Lr 4 0.50000 0.00000 0.32715 1.0000
loop_
_topos_bond_atom_site_label_1
_topos_bond_atom_site_label_2
_topos_bond_site_symmetry_1
_topos_bond_site_symmetry_2
_topos_bond_distance
_topos_bond_type
_topos_bond_multiplicity
O1 Si2 1_0_0_0 1_0_0_0 1.6100 V 8
O1 Si1 1_0_0_0 1_0_0_0 1.6110 V 8
O2 Si1 1_0_0_0 1_0_0_0 1.6100 V 8
O2 Si4 1_0_0_0 1_0_0_0 1.6110 V 8
O3 Si1 1_0_0_0 1_0_0_0 1.6110 V 8
O3 Si6 1_0_0_0 1_0_1_0 1.6100 V 8
O4 Si2 1_0_0_0 1_0_0_0 1.6090 V 8
O4 Si3 1_0_0_0 1_0_0_0 1.6110 V 8
O5 Si2 1_0_0_0 1_0_0_0 1.6110 V 8
O5 Si8 1_0_0_0 1_0_0_0 1.6110 V 8
O6 Si4 1_0_0_0 1_0_0_0 1.6110 V 8
O6 Si3 1_0_0_0 1_0_0_0 1.6110 V 8
O7 Si3 1_0_0_0 1_0_0_0 1.6090 V 8
O7 Si5 1_0_0_0 1_0_0_0 1.6090 V 8
O8 Si4 1_0_0_0 1_0_0_0 1.6100 V 8
O8 Si7 1_0_0_0 1_0_0_0 1.6100 V 8
O9 Si13 1_0_0_0 1_0_0_0 1.6100 V 8
O9 Si6 1_0_0_0 1_0_1_0 1.6110 V 8
O10 Si8 1_0_0_0 1_0_0_0 1.6080 V 8
O10 Si14 1_0_0_0 1_0_0_0 1.6110 V 8
O11 Si5 1_0_0_0 1_0_0_0 1.6080 V 8
O11 Si15 1_0_0_0 1_0_0_0 1.6080 V 8
O12 Si7 1_0_0_0 1_0_0_0 1.6090 V 8
O12 Si16 1_0_0_0 1_0_0_0 1.6100 V 8
O13 Si5 1_0_0_0 1_0_0_0 1.6080 V 8
O13 Si9 1_0_0_0 1_0_0_0 1.6120 V 8
O14 Si5 1_0_0_0 1_0_0_0 1.6100 V 8
O14 Si11 1_0_0_0 1_0_0_0 1.6100 V 8
O15 Si6 1_0_0_0 1_0_0_0 1.6070 V 8
O15 Si10 1_0_0_0 1_0_0_0 1.6130 V 8
O16 Si11 1_0_0_0 1_0_0_0 1.6100 V 8
O16 Si6 1_0_0_0 1_0_0_0 1.6110 V 8
O17 Si7 1_0_0_0 1_0_0_0 1.6100 V 8
O17 Si9 1_0_0_0 7_0_0_0 1.6070 V 8
O18 Si7 1_0_0_0 1_0_0_0 1.6100 V 8
O18 Si10 1_0_0_0 1_0_1_0 1.6100 V 8
O19 Si8 1_0_0_0 1_0_0_0 1.6110 V 8
O19 Si12 1_0_0_0 1_0_0_0 1.6120 V 8
O20 Si8 1_0_0_0 1_0_0_0 1.6110 V 8
O20 Si12 1_0_0_0 2_1_1_0 1.6110 V 8
O21 Si10 1_0_0_0 1_0_0_0 1.6100 V 8
O21 Si9 1_0_0_0 1_0_0_0 1.6110 V 8
O22 Si12 1_0_0_0 1_0_0_0 1.6100 V 8
O22 Si11 1_0_0_0 1_0_0_0 1.6120 V 8
O23 Si1 1_0_0_0 1_0_0_0 1.6100 V 8
O24 Si2 1_0_0_0 1_0_0_0 1.6100 V 8
O25 Si3 1_0_0_0 1_0_0_0 1.6100 V 8
O26 Si4 1_0_0_0 1_0_0_0 1.6080 V 8
O27 Si14 1_0_0_0 1_0_0_0 1.6070 V 4
O27 Si13 1_0_0_0 1_0_0_0 1.6100 V 4
O28 Si16 1_0_0_0 1_0_0_0 1.6100 V 4
O28 Si13 1_0_0_0 1_0_0_0 1.6110 V 4
O29 Si15 1_0_0_0 1_0_0_0 1.6100 V 4
O29 Si14 1_0_0_0 1_0_0_0 1.6110 V 4
O30 Si16 1_0_0_0 1_0_0_0 1.6070 V 4
O30 Si15 1_0_0_0 1_0_0_0 1.6100 V 4
O31 Si9 1_0_0_0 1_0_0_0 1.6100 V 8
O32 Si10 1_0_0_0 1_0_0_0 1.6110 V 8
O33 Si11 1_0_0_0 1_0_0_0 1.6090 V 8
O34 Si12 1_0_0_0 1_0_0_0 1.6090 V 8
Lr2 Lr8 1_0_0_0 1_0_0_0 2.3780 V 8
Lr3 Lr5 1_0_0_0 4_0_0_0 5.1910 V 8
Lr3 Lr6 1_0_0_0 4_0_0_1 2.5030 V 8
Lr5 Lr10 1_0_0_0 1_0_0_0 9.1080 V 4
Lr5 Lr5 1_0_0_0 4_0_-1_0 6.9610 V 4
Lr10 Lr14 1_0_0_0 1_0_0_0 4.1580 V 4
Lr10 Lr11 1_0_0_0 1_0_0_0 6.3560 V 4
Lr13 Lr14 1_0_0_0 1_0_0_0 2.1970 V 4
#End of data_111-TOPOS_IWW-PPT1

data_112-TOPOS_JBW-PPT1
_audit_creation_date                2025-02-23
_audit_creation_method              ToposPro
_chemical_formula_structural        JBW-PPT1
_chemical_formula_sum               'Lr2 O6 Si3'
_citation_special_details
;
Space Group: PMMA->P m m a. File: JBW-PPT1.cif. 
;
_cell_length_a                      5.256
_cell_length_b                      7.45
_cell_length_c                      8.159
_cell_angle_alpha                   90
_cell_angle_beta                    90
_cell_angle_gamma                   90
_cell_volume                        319.4836
_cell_formula_units_Z               2
_symmetry_space_group_name_H-M      'P m m a'
_symmetry_Int_Tables_number         51
_refine_ls_R_factor_all             0
loop_
_symmetry_equiv_pos_site_id
_symmetry_equiv_pos_as_xyz
1 x,y,z
2 1/2-x,-y,z
3 1/2+x,-y,-z
4 -x,y,-z
5 -x,-y,-z
6 1/2+x,y,-z
7 1/2-x,y,z
8 x,-y,z
loop_
_atom_site_label
_atom_site_type_symbol
_atom_site_symmetry_multiplicity
_atom_site_fract_x
_atom_site_fract_y
_atom_site_fract_z
_atom_site_occupancy
O1 O 4 0.00000 0.26120 0.00000 1.0000
O2 O 2 0.25000 0.00000 0.14550 1.0000
O3 O 4 0.25000 0.32350 0.27280 1.0000
O4 O 2 0.50000 0.50000 0.50000 1.0000
Si1 Si 4 0.25000 0.21110 0.10420 1.0000
Si2 Si 2 0.25000 0.50000 0.38650 1.0000
Lr1 Lr 2 0.25000 0.00000 0.65907 1.0000
Lr2 Lr 2 0.75000 0.50000 0.12084 1.0000
loop_
_topos_bond_atom_site_label_1
_topos_bond_atom_site_label_2
_topos_bond_site_symmetry_1
_topos_bond_site_symmetry_2
_topos_bond_distance
_topos_bond_type
_topos_bond_multiplicity
O1 Si1 1_0_0_0 1_0_0_0 1.6090 V 8
O2 Si1 1_0_0_0 1_0_0_0 1.6080 V 4
O3 Si2 1_0_0_0 1_0_0_0 1.6090 V 4
O3 Si1 1_0_0_0 1_0_0_0 1.6100 V 4
O4 Si2 1_0_0_0 3_0_1_1 1.6080 V 4
Lr1 Lr1 1_0_0_0 3_0_0_1 3.6940 V 2
#End of data_112-TOPOS_JBW-PPT1

data_113-TOPOS_JNT-NT
_audit_creation_date                2025-02-23
_audit_creation_method              ToposPro
_chemical_formula_structural        JNT-NT
_chemical_formula_sum               'Lr19 O32 Si16'
_citation_special_details
;
Space Group: P21/C->P 21/c. File: JNT-NT.cif. 
;
_cell_length_a                      8.2065
_cell_length_b                      14.1364
_cell_length_c                      16.1075
_cell_angle_alpha                   90
_cell_angle_beta                    123.4615
_cell_angle_gamma                   90
_cell_volume                        1558.923
_cell_formula_units_Z               2
_symmetry_space_group_name_H-M      'P 21/c'
_symmetry_Int_Tables_number         14
_refine_ls_R_factor_all             0
loop_
_symmetry_equiv_pos_site_id
_symmetry_equiv_pos_as_xyz
1 x,y,z
2 -x,1/2+y,1/2-z
3 -x,-y,-z
4 x,1/2-y,1/2+z
loop_
_atom_site_label
_atom_site_type_symbol
_atom_site_symmetry_multiplicity
_atom_site_fract_x
_atom_site_fract_y
_atom_site_fract_z
_atom_site_occupancy
O1 O 4 0.63057 0.40280 0.14882 1.0000
O2 O 4 0.28674 0.32632 0.07491 1.0000
O3 O 4 0.52690 0.25800 0.02535 1.0000
O4 O 4 0.85119 0.37278 0.85370 1.0000
O5 O 4 0.60127 0.23066 0.20178 1.0000
O6 O 4 0.12988 0.27800 0.64709 1.0000
O7 O 4 0.23410 0.42800 0.76862 1.0000
O8 O 4 0.50277 0.11389 0.91018 1.0000
O9 O 4 0.61549 0.46050 0.89012 1.0000
O10 O 4 0.93836 0.37169 0.03611 1.0000
O11 O 4 0.63360 0.27714 0.89826 1.0000
O12 O 4 0.24501 0.10679 0.71610 1.0000
O13 O 4 0.91798 0.32883 0.71487 1.0000
O14 O 4 0.35436 0.95019 0.82414 1.0000
O15 O 4 0.59153 0.03671 0.78952 1.0000
O16 O 4 0.26302 0.25607 0.83514 1.0000
Si1 Si 4 0.13697 0.32442 0.74037 1.0000
Si2 Si 4 0.50940 0.30511 0.11103 1.0000
Si3 Si 4 0.42312 0.05245 0.81065 1.0000
Si4 Si 4 0.76089 0.37174 0.92072 1.0000
Si5 Si 4 0.48409 0.22635 0.91923 1.0000
Si6 Si 4 0.14969 0.17154 0.61771 1.0000
Si7 Si 4 0.75444 0.35534 0.73670 1.0000
Si8 Si 4 0.40664 0.50419 0.80589 1.0000
Lr1 Lr 4 0.45745 0.30692 0.76452 1.0000
Lr2 Lr 4 0.01774 0.11210 0.73919 1.0000
Lr3 Lr 4 0.45980 0.24239 0.76520 1.0000
Lr4 Lr 4 0.52500 0.30336 0.25859 1.0000
Lr5 Lr 4 0.52930 0.85351 0.76832 1.0000
Lr6 Lr 4 0.10551 0.42595 0.93908 1.0000
Lr7 Lr 4 0.89205 0.11845 0.65734 1.0000
Lr8 Lr 4 0.23252 0.50291 0.92073 1.0000
Lr9 Lr 2 0.50000 0.50000 0.00000 1.0000
Lr10 Lr 2 0.00000 0.50000 0.00000 1.0000
Lr11 Lr 2 0.00000 0.00000 0.00000 1.0000
loop_
_topos_bond_atom_site_label_1
_topos_bond_atom_site_label_2
_topos_bond_site_symmetry_1
_topos_bond_site_symmetry_2
_topos_bond_distance
_topos_bond_type
_topos_bond_multiplicity
O1 Si2 1_0_0_0 1_0_0_0 1.6120 V 4
O1 Si8 1_0_0_0 3_1_1_1 1.6120 V 4
O2 Si2 1_0_0_0 1_0_0_0 1.6110 V 4
O2 Si6 1_0_0_0 4_0_0_-1 1.6110 V 4
O3 Si2 1_0_0_0 1_0_0_0 1.6090 V 4
O3 Si5 1_0_0_0 1_0_0_-1 1.6070 V 4
O4 Si7 1_0_0_0 1_0_0_0 1.6100 V 4
O4 Si4 1_0_0_0 1_0_0_0 1.6110 V 4
O5 Si2 1_0_0_0 1_0_0_0 1.6120 V 4
O5 Si7 1_0_0_0 4_0_0_-1 1.6110 V 4
O6 Si1 1_0_0_0 1_0_0_0 1.6110 V 4
O6 Si6 1_0_0_0 1_0_0_0 1.6120 V 4
O7 Si1 1_0_0_0 1_0_0_0 1.6080 V 4
O7 Si8 1_0_0_0 1_0_0_0 1.6090 V 4
O8 Si3 1_0_0_0 1_0_0_0 1.6110 V 4
O8 Si5 1_0_0_0 1_0_0_0 1.6110 V 4
O9 Si4 1_0_0_0 1_0_0_0 1.6100 V 4
O9 Si8 1_0_0_0 1_0_0_0 1.6110 V 4
O10 Si4 1_0_0_0 1_0_0_-1 1.6100 V 4
O10 Si6 1_0_0_0 4_1_0_-1 1.6110 V 4
O11 Si5 1_0_0_0 1_0_0_0 1.6100 V 4
O11 Si4 1_0_0_0 1_0_0_0 1.6110 V 4
O12 Si3 1_0_0_0 1_0_0_0 1.6100 V 4
O12 Si6 1_0_0_0 1_0_0_0 1.6110 V 4
O13 Si7 1_0_0_0 1_0_0_0 1.6080 V 4
O13 Si1 1_0_0_0 1_1_0_0 1.6090 V 4
O14 Si7 1_0_0_0 2_1_0_1 1.6100 V 4
O14 Si3 1_0_0_0 1_0_1_0 1.6100 V 4
O15 Si3 1_0_0_0 1_0_0_0 1.6110 V 4
O15 Si8 1_0_0_0 2_1_-1_1 1.6120 V 4
O16 Si1 1_0_0_0 1_0_0_0 1.6100 V 4
O16 Si5 1_0_0_0 1_0_0_0 1.6100 V 4
Lr1 Lr3 1_0_0_0 1_0_0_0 0.9120 V 4
Lr1 Lr5 1_0_0_0 2_1_-1_1 0.8880 V 4
Lr2 Lr11 1_0_0_0 1_0_0_1 4.5670 V 4
Lr2 Lr7 1_0_0_0 1_-1_0_0 1.1450 V 4
Lr3 Lr4 1_0_0_0 4_0_0_0 0.8820 V 4
Lr6 Lr8 1_0_0_0 1_0_0_0 1.6420 V 4
Lr6 Lr10 1_0_0_0 1_0_0_1 1.9350 V 4
Lr7 Lr8 1_0_0_0 2_1_-1_1 1.9690 V 4
Lr8 Lr9 1_0_0_0 1_0_0_1 1.8330 V 4
Lr11 Lr11 1_0_0_0 1_1_0_0 8.2070 V 2
#End of data_113-TOPOS_JNT-NT

data_114-TOPOS_JOZ-PPT1
_audit_creation_date                2025-02-23
_audit_creation_method              ToposPro
_chemical_formula_structural        JOZ-PPT1
_chemical_formula_sum               'Lr1 O10 Si5'
_citation_special_details
;
Space Group: PBCM->P b c m. File: JOZ-PPT1.cif. 
;
_cell_length_a                      7.1386
_cell_length_b                      12.7091
_cell_length_c                      13.4705
_cell_angle_alpha                   90
_cell_angle_beta                    90
_cell_angle_gamma                   90
_cell_volume                        1222.114
_cell_formula_units_Z               4
_symmetry_space_group_name_H-M      'P b c m'
_symmetry_Int_Tables_number         57
_refine_ls_R_factor_all             0
loop_
_symmetry_equiv_pos_site_id
_symmetry_equiv_pos_as_xyz
1 x,y,z
2 -x,-y,1/2+z
3 x,1/2-y,-z
4 -x,1/2+y,1/2-z
5 -x,-y,-z
6 x,y,1/2-z
7 -x,1/2+y,z
8 x,1/2-y,1/2+z
loop_
_atom_site_label
_atom_site_type_symbol
_atom_site_symmetry_multiplicity
_atom_site_fract_x
_atom_site_fract_y
_atom_site_fract_z
_atom_site_occupancy
O1 O 8 0.83600 0.51400 0.57980 1.0000
O2 O 8 0.19780 0.53310 0.60890 1.0000
O3 O 8 0.98510 0.70080 0.58610 1.0000
O4 O 8 0.27460 0.15770 0.04470 1.0000
O5 O 4 0.95860 0.58860 0.75000 1.0000
O6 O 4 0.50000 0.00000 0.00000 1.0000
Si1 Si 8 0.99610 0.58400 0.63250 1.0000
Si2 Si 8 0.28640 0.03400 0.01900 1.0000
Si3 Si 4 0.14480 0.25000 0.00000 1.0000
Lr1 Lr 4 0.36834 0.80983 0.75000 1.0000
loop_
_topos_bond_atom_site_label_1
_topos_bond_atom_site_label_2
_topos_bond_site_symmetry_1
_topos_bond_site_symmetry_2
_topos_bond_distance
_topos_bond_type
_topos_bond_multiplicity
O1 Si1 1_0_0_0 1_0_0_0 1.6130 V 8
O1 Si2 1_0_0_0 4_1_0_0 1.6120 V 8
O2 Si1 1_0_0_0 1_-1_0_0 1.6100 V 8
O2 Si2 1_0_0_0 8_0_0_0 1.6110 V 8
O3 Si1 1_0_0_0 1_0_0_0 1.6130 V 8
O3 Si3 1_0_0_0 2_1_1_0 1.6110 V 8
O4 Si3 1_0_0_0 1_0_0_0 1.6120 V 8
O4 Si2 1_0_0_0 1_0_0_0 1.6120 V 8
O5 Si1 1_0_0_0 1_0_0_0 1.6060 V 8
O6 Si2 1_0_0_0 1_0_0_0 1.6050 V 8
Lr1 Lr1 1_0_0_0 1_-1_0_0 7.1390 V 4
Lr1 Lr1 1_0_0_0 3_0_1_2 6.9050 V 4
Lr1 Lr1 1_0_0_0 4_1_0_1 6.6270 V 4
#End of data_114-TOPOS_JOZ-PPT1

data_115-TOPOS_JRY-NT
_audit_creation_date                2025-02-23
_audit_creation_method              ToposPro
_chemical_formula_structural        JRY-NT
_chemical_formula_sum               'Lr5 O6 Si3'
_citation_special_details
;
Space Group: I212121->I 21 21 21. File: JRY-NT.cif. 
;
_cell_length_a                      8.165
_cell_length_b                      9.2
_cell_length_c                      17.294
_cell_angle_alpha                   90
_cell_angle_beta                    90
_cell_angle_gamma                   90
_cell_volume                        1299.091
_cell_formula_units_Z               8
_symmetry_space_group_name_H-M      'I 21 21 21'
_symmetry_Int_Tables_number         24
_refine_ls_R_factor_all             0
loop_
_symmetry_equiv_pos_site_id
_symmetry_equiv_pos_as_xyz
1 x,y,z
2 -x,1/2-y,z
3 x,-y,1/2-z
4 1/2-x,y,-z
5 1/2+x,1/2+y,1/2+z
6 1/2-x,-y,1/2+z
7 1/2+x,1/2-y,-z
8 -x,1/2+y,1/2-z
loop_
_atom_site_label
_atom_site_type_symbol
_atom_site_symmetry_multiplicity
_atom_site_fract_x
_atom_site_fract_y
_atom_site_fract_z
_atom_site_occupancy
O1 O 8 0.54680 0.48340 0.03930 1.0000
O2 O 8 0.74790 0.59230 0.14190 1.0000
O3 O 8 0.04780 0.50990 0.10500 1.0000
O4 O 4 0.75000 0.69140 0.00000 1.0000
O5 O 4 0.50000 0.75000 0.09160 1.0000
O6 O 4 0.25000 0.40550 0.00000 1.0000
O7 O 4 0.00000 0.25000 0.04700 1.0000
O8 O 4 0.00000 0.25000 0.31600 1.0000
O9 O 4 0.94980 0.50000 0.25000 1.0000
Si1 Si 8 0.63480 0.63030 0.06830 1.0000
Si2 Si 8 0.06260 0.41190 0.02810 1.0000
Si3 Si 8 0.93600 0.41300 0.33030 1.0000
Lr1 Lr 8 0.77657 0.40680 0.02424 1.0000
Lr2 Lr 8 0.68750 0.83452 0.95758 1.0000
Lr3 Lr 8 0.58333 0.25000 0.16667 1.0000
Lr4 Lr 8 0.67132 0.16315 0.20498 1.0000
Lr5 Lr 4 0.00000 0.75000 0.04945 1.0000
Lr6 Lr 4 0.65200 0.00000 0.25000 1.0000
loop_
_topos_bond_atom_site_label_1
_topos_bond_atom_site_label_2
_topos_bond_site_symmetry_1
_topos_bond_site_symmetry_2
_topos_bond_distance
_topos_bond_type
_topos_bond_multiplicity
O1 Si1 1_0_0_0 1_0_0_0 1.6110 V 8
O1 Si2 1_0_0_0 4_0_0_0 1.6090 V 8
O2 Si1 1_0_0_0 1_0_0_0 1.6110 V 8
O2 Si3 1_0_0_0 3_0_1_0 1.6100 V 8
O3 Si2 1_0_0_0 1_0_0_0 1.6110 V 8
O3 Si3 1_0_0_0 3_-1_1_0 1.6090 V 8
O4 Si1 1_0_0_0 1_0_0_0 1.6110 V 8
O5 Si1 1_0_0_0 1_0_0_0 1.6080 V 8
O6 Si2 1_0_0_0 1_0_0_0 1.6070 V 8
O7 Si2 1_0_0_0 1_0_0_0 1.6080 V 8
O8 Si3 1_0_0_0 1_-1_0_0 1.6070 V 8
O9 Si3 1_0_0_0 1_0_0_0 1.6070 V 8
Lr1 Lr1 1_0_0_0 4_1_0_0 0.9440 V 4
Lr2 Lr5 1_0_0_0 4_0_0_1 1.7210 V 8
Lr2 Lr2 1_0_0_0 4_1_0_2 1.7870 V 4
Lr3 Lr4 1_0_0_0 1_0_0_0 1.2620 V 8
Lr3 Lr3 1_0_0_0 2_1_0_0 1.3610 V 4
Lr4 Lr6 1_0_0_0 1_0_0_0 1.6980 V 8
#End of data_115-TOPOS_JRY-NT

data_116-TOPOS_JSN-PPT1
_audit_creation_date                2025-02-23
_audit_creation_method              ToposPro
_chemical_formula_structural        JSN-PPT1
_chemical_formula_sum               'Lr1 O8 Si4'
_citation_special_details
;
Space Group: P2/C->P 2/c. File: JSN-PPT1.cif. 
;
_cell_length_a                      8.7172
_cell_length_b                      6.9231
_cell_length_c                      14.946
_cell_angle_alpha                   90
_cell_angle_beta                    96.992
_cell_angle_gamma                   90
_cell_volume                        895.2839
_cell_formula_units_Z               4
_symmetry_space_group_name_H-M      'P 2/c'
_symmetry_Int_Tables_number         13
_refine_ls_R_factor_all             0
loop_
_symmetry_equiv_pos_site_id
_symmetry_equiv_pos_as_xyz
1 x,y,z
2 -x,y,1/2-z
3 -x,-y,-z
4 x,-y,1/2+z
loop_
_atom_site_label
_atom_site_type_symbol
_atom_site_symmetry_multiplicity
_atom_site_fract_x
_atom_site_fract_y
_atom_site_fract_z
_atom_site_occupancy
O1 O 4 0.72400 0.29940 0.69800 1.0000
O2 O 4 0.77550 0.10560 0.84940 1.0000
O3 O 4 0.77170 0.92570 0.69290 1.0000
O4 O 4 0.70380 0.91780 0.51580 1.0000
O5 O 4 0.51740 0.06070 0.38030 1.0000
O6 O 4 0.54750 0.68520 0.40020 1.0000
O7 O 4 0.63890 0.38190 0.11170 1.0000
O8 O 2 0.00000 0.16210 0.75000 1.0000
O9 O 2 0.50000 0.51140 0.75000 1.0000
Si1 Si 4 0.81800 0.12160 0.74780 1.0000
Si2 Si 4 0.63680 0.88910 0.41130 1.0000
Si3 Si 4 0.65060 0.14980 0.11040 1.0000
Si4 Si 4 0.42110 0.43570 0.83550 1.0000
Lr1 Lr 2 0.50000 0.99082 0.75000 1.0000
Lr2 Lr 2 0.00000 0.50000 0.50000 1.0000
loop_
_topos_bond_atom_site_label_1
_topos_bond_atom_site_label_2
_topos_bond_site_symmetry_1
_topos_bond_site_symmetry_2
_topos_bond_distance
_topos_bond_type
_topos_bond_multiplicity
O1 Si1 1_0_0_0 1_0_0_0 1.6100 V 4
O1 Si4 1_0_0_0 2_1_0_1 1.6080 V 4
O2 Si1 1_0_0_0 1_0_0_0 1.6100 V 4
O2 Si2 1_0_0_0 4_0_1_0 1.6100 V 4
O3 Si3 1_0_0_0 4_0_1_0 1.6100 V 4
O3 Si1 1_0_0_0 1_0_1_0 1.6110 V 4
O4 Si2 1_0_0_0 1_0_0_0 1.6120 V 4
O4 Si3 1_0_0_0 4_0_1_0 1.6100 V 4
O5 Si2 1_0_0_0 1_0_-1_0 1.6100 V 4
O5 Si3 1_0_0_0 2_1_0_0 1.6110 V 4
O6 Si2 1_0_0_0 1_0_0_0 1.6110 V 4
O6 Si4 1_0_0_0 4_0_1_-1 1.6090 V 4
O7 Si3 1_0_0_0 1_0_0_0 1.6100 V 4
O7 Si4 1_0_0_0 3_1_1_1 1.6100 V 4
O8 Si1 1_0_0_0 1_-1_0_0 1.6080 V 4
O9 Si4 1_0_0_0 1_0_0_0 1.6110 V 4
Lr2 Lr2 1_0_0_0 1_0_-1_0 6.9230 V 2
Lr2 Lr2 1_0_0_0 2_0_0_0 7.4730 V 2
#End of data_116-TOPOS_JSN-PPT1

data_117-TOPOS_JSR-PPT1
_audit_creation_date                2025-02-23
_audit_creation_method              ToposPro
_chemical_formula_structural        JSR-PPT1
_chemical_formula_sum               'Lr1 O16 Si8'
_citation_special_details
;
Space Group: PA-3->P a -3. File: JSR-PPT1.cif. 
;
_cell_length_a                      19.845
_cell_length_b                      19.845
_cell_length_c                      19.845
_cell_angle_alpha                   90
_cell_angle_beta                    90
_cell_angle_gamma                   90
_cell_volume                        7815.437
_cell_formula_units_Z               12
_symmetry_space_group_name_H-M      'P a -3'
_symmetry_Int_Tables_number         205
_refine_ls_R_factor_all             0
loop_
_symmetry_equiv_pos_site_id
_symmetry_equiv_pos_as_xyz
1 x,y,z
2 1/2-x,-y,1/2+z
3 1/2+x,1/2-y,-z
4 -x,1/2+y,1/2-z
5 z,x,y
6 y,z,x
7 1/2-z,-x,1/2+y
8 -y,1/2+z,1/2-x
9 1/2+z,1/2-x,-y
10 1/2-y,-z,1/2+x
11 -z,1/2+x,1/2-y
12 1/2+y,1/2-z,-x
13 -x,-y,-z
14 1/2+x,y,1/2-z
15 1/2-x,1/2+y,z
16 x,1/2-y,1/2+z
17 -z,-x,-y
18 -y,-z,-x
19 1/2+z,x,1/2-y
20 y,1/2-z,1/2+x
21 1/2-z,1/2+x,y
22 1/2+y,z,1/2-x
23 z,1/2-x,1/2+y
24 1/2-y,1/2+z,x
loop_
_atom_site_label
_atom_site_type_symbol
_atom_site_symmetry_multiplicity
_atom_site_fract_x
_atom_site_fract_y
_atom_site_fract_z
_atom_site_occupancy
O1 O 24 0.01928 0.38643 0.49028 1.0000
O2 O 24 0.13909 0.40777 0.43809 1.0000
O3 O 24 0.03280 0.39290 0.35941 1.0000
O4 O 24 0.07873 0.28821 0.42743 1.0000
O5 O 24 0.00063 0.18273 0.40560 1.0000
O6 O 24 0.08270 0.18308 0.50869 1.0000
O7 O 24 0.97680 0.26400 0.50778 1.0000
O8 O 24 0.06800 0.07436 0.43620 1.0000
Si1 Si 24 0.06865 0.36877 0.42815 1.0000
Si2 Si 24 0.03477 0.22959 0.46249 1.0000
Si3 Si 24 0.15790 0.48463 0.45593 1.0000
Si4 Si 24 0.10222 0.10446 0.50344 1.0000
Lr1 Lr 8 0.27056 0.22944 0.77056 1.0000
Lr2 Lr 4 0.00000 0.50000 0.50000 1.0000
loop_
_topos_bond_atom_site_label_1
_topos_bond_atom_site_label_2
_topos_bond_site_symmetry_1
_topos_bond_site_symmetry_2
_topos_bond_distance
_topos_bond_type
_topos_bond_multiplicity
O1 Si1 1_0_0_0 1_0_0_0 1.6130 V 24
O1 Si3 1_0_0_0 9_-1_0_1 1.6130 V 24
O2 Si3 1_0_0_0 1_0_0_0 1.6100 V 24
O2 Si1 1_0_0_0 1_0_0_0 1.6100 V 24
O3 Si1 1_0_0_0 1_0_0_0 1.6110 V 24
O3 Si3 1_0_0_0 22_-1_0_0 1.6110 V 24
O4 Si1 1_0_0_0 1_0_0_0 1.6110 V 24
O4 Si2 1_0_0_0 1_0_0_0 1.6120 V 24
O5 Si2 1_0_0_0 1_0_0_0 1.6120 V 24
O5 Si4 1_0_0_0 19_-1_0_0 1.6110 V 24
O6 Si4 1_0_0_0 1_0_0_0 1.6110 V 24
O6 Si2 1_0_0_0 1_0_0_0 1.6120 V 24
O7 Si3 1_0_0_0 9_0_0_1 1.6110 V 24
O7 Si2 1_0_0_0 1_1_0_0 1.6120 V 24
O8 Si4 1_0_0_0 1_0_0_0 1.6120 V 24
O8 Si4 1_0_0_0 19_-1_0_0 1.6120 V 24
Lr1 Lr1 1_0_0_0 14_-1_0_1 9.9560 V 24
#End of data_117-TOPOS_JSR-PPT1

data_118-TOPOS_JST-PPT1
_audit_creation_date                2025-02-23
_audit_creation_method              ToposPro
_chemical_formula_structural        JST-PPT1
_chemical_formula_sum               'Lr1 O8 Si4'
_citation_special_details
;
Space Group: PA-3->P a -3. File: JST-PPT1.cif. 
;
_cell_length_a                      14.97
_cell_length_b                      14.97
_cell_length_c                      14.97
_cell_angle_alpha                   90
_cell_angle_beta                    90
_cell_angle_gamma                   90
_cell_volume                        3354.791
_cell_formula_units_Z               12
_symmetry_space_group_name_H-M      'P a -3'
_symmetry_Int_Tables_number         205
_refine_ls_R_factor_all             0
loop_
_symmetry_equiv_pos_site_id
_symmetry_equiv_pos_as_xyz
1 x,y,z
2 1/2-x,-y,1/2+z
3 1/2+x,1/2-y,-z
4 -x,1/2+y,1/2-z
5 z,x,y
6 y,z,x
7 1/2-z,-x,1/2+y
8 -y,1/2+z,1/2-x
9 1/2+z,1/2-x,-y
10 1/2-y,-z,1/2+x
11 -z,1/2+x,1/2-y
12 1/2+y,1/2-z,-x
13 -x,-y,-z
14 1/2+x,y,1/2-z
15 1/2-x,1/2+y,z
16 x,1/2-y,1/2+z
17 -z,-x,-y
18 -y,-z,-x
19 1/2+z,x,1/2-y
20 y,1/2-z,1/2+x
21 1/2-z,1/2+x,y
22 1/2+y,z,1/2-x
23 z,1/2-x,1/2+y
24 1/2-y,1/2+z,x
loop_
_atom_site_label
_atom_site_type_symbol
_atom_site_symmetry_multiplicity
_atom_site_fract_x
_atom_site_fract_y
_atom_site_fract_z
_atom_site_occupancy
O1 O 24 0.87140 0.08490 0.96690 1.0000
O2 O 24 0.74900 0.01920 0.07690 1.0000
O3 O 24 0.82080 0.17970 0.10320 1.0000
O4 O 24 0.93980 0.29950 0.15050 1.0000
Si1 Si 24 0.83800 0.07910 0.06910 1.0000
Si2 Si 24 0.87100 0.27010 0.07310 1.0000
Lr1 Lr 8 0.14767 0.14767 0.14767 1.0000
Lr2 Lr 4 0.50000 0.00000 0.00000 1.0000
loop_
_topos_bond_atom_site_label_1
_topos_bond_atom_site_label_2
_topos_bond_site_symmetry_1
_topos_bond_site_symmetry_2
_topos_bond_distance
_topos_bond_type
_topos_bond_multiplicity
O1 Si1 1_0_0_0 1_0_0_1 1.6120 V 24
O1 Si1 1_0_0_0 17_1_1_1 1.6120 V 24
O2 Si1 1_0_0_0 1_0_0_0 1.6100 V 24
O2 Si2 1_0_0_0 18_1_0_1 1.6120 V 24
O3 Si1 1_0_0_0 1_0_0_0 1.6110 V 24
O3 Si2 1_0_0_0 1_0_0_0 1.6120 V 24
O4 Si2 1_0_0_0 1_0_0_0 1.6120 V 24
O4 Si2 1_0_0_0 11_1_-1_0 1.6110 V 24
Lr1 Lr2 1_0_0_0 2_0_0_0 6.1310 V 24
#End of data_118-TOPOS_JST-PPT1

data_119-TOPOS_JSW-NT
_audit_creation_date                2025-02-23
_audit_creation_method              ToposPro
_chemical_formula_structural        JSW-NT
_chemical_formula_sum               'Lr1 O4 Si2'
_citation_special_details
;
Space Group: PBCA->P b c a. File: JSW-NT.cif. 
;
_cell_length_a                      16.0185
_cell_length_b                      9.6655
_cell_length_c                      16.8331
_cell_angle_alpha                   90
_cell_angle_beta                    90
_cell_angle_gamma                   90
_cell_volume                        2606.215
_cell_formula_units_Z               24
_symmetry_space_group_name_H-M      'P b c a'
_symmetry_Int_Tables_number         61
_refine_ls_R_factor_all             0
loop_
_symmetry_equiv_pos_site_id
_symmetry_equiv_pos_as_xyz
1 x,y,z
2 1/2-x,-y,1/2+z
3 1/2+x,1/2-y,-z
4 -x,1/2+y,1/2-z
5 -x,-y,-z
6 1/2+x,y,1/2-z
7 1/2-x,1/2+y,z
8 x,1/2-y,1/2+z
loop_
_atom_site_label
_atom_site_type_symbol
_atom_site_symmetry_multiplicity
_atom_site_fract_x
_atom_site_fract_y
_atom_site_fract_z
_atom_site_occupancy
O1 O 8 0.18260 0.04890 0.99460 1.0000
O2 O 8 0.29010 0.16040 0.09520 1.0000
O3 O 8 0.21680 0.92480 0.12980 1.0000
O4 O 8 0.13080 0.15540 0.12980 1.0000
O5 O 8 0.07620 0.78820 0.15040 1.0000
O6 O 8 0.20390 0.74030 0.24400 1.0000
O7 O 8 0.95770 0.78360 0.25950 1.0000
O8 O 8 0.92500 0.87430 0.11520 1.0000
O9 O 8 0.01900 0.01960 0.21260 1.0000
O10 O 8 0.15840 0.10540 0.28040 1.0000
O11 O 8 0.30000 0.03690 0.34770 1.0000
O12 O 8 0.27260 0.77460 0.38350 1.0000
Si1 Si 8 0.20530 0.07220 0.08670 1.0000
Si2 Si 8 0.99460 0.86590 0.18410 1.0000
Si3 Si 8 0.24560 0.16390 0.31410 1.0000
Si4 Si 8 0.32840 0.90910 0.40270 1.0000
Si5 Si 8 0.17640 0.77850 0.15470 1.0000
Si6 Si 8 0.08750 0.14130 0.21580 1.0000
Lr1 Lr 8 0.18460 0.94211 0.23889 1.0000
Lr2 Lr 8 0.23160 0.00106 0.23469 1.0000
Lr3 Lr 4 0.00000 0.00000 0.00000 1.0000
Lr4 Lr 4 0.00000 0.50000 0.00000 1.0000
loop_
_topos_bond_atom_site_label_1
_topos_bond_atom_site_label_2
_topos_bond_site_symmetry_1
_topos_bond_site_symmetry_2
_topos_bond_distance
_topos_bond_type
_topos_bond_multiplicity
O1 Si1 1_0_0_0 1_0_0_1 1.6080 V 8
O1 Si4 1_0_0_0 2_0_1_0 1.6090 V 8
O2 Si1 1_0_0_0 1_0_0_0 1.6100 V 8
O2 Si5 1_0_0_0 7_0_-1_0 1.6110 V 8
O3 Si5 1_0_0_0 1_0_0_0 1.6110 V 8
O3 Si1 1_0_0_0 1_0_1_0 1.6090 V 8
O4 Si6 1_0_0_0 1_0_0_0 1.6110 V 8
O4 Si1 1_0_0_0 1_0_0_0 1.6120 V 8
O5 Si5 1_0_0_0 1_0_0_0 1.6090 V 8
O5 Si2 1_0_0_0 1_-1_0_0 1.6110 V 8
O6 Si5 1_0_0_0 1_0_0_0 1.6090 V 8
O6 Si3 1_0_0_0 7_0_0_0 1.6100 V 8
O7 Si2 1_0_0_0 1_0_0_0 1.6100 V 8
O7 Si6 1_0_0_0 4_1_0_0 1.6090 V 8
O8 Si2 1_0_0_0 1_0_0_0 1.6110 V 8
O8 Si4 1_0_0_0 6_0_0_0 1.6120 V 8
O9 Si6 1_0_0_0 1_0_0_0 1.6100 V 8
O9 Si2 1_0_0_0 1_-1_-1_0 1.6090 V 8
O10 Si3 1_0_0_0 1_0_0_0 1.6100 V 8
O10 Si6 1_0_0_0 1_0_0_0 1.6100 V 8
O11 Si3 1_0_0_0 1_0_0_0 1.6080 V 8
O11 Si4 1_0_0_0 1_0_-1_0 1.6090 V 8
O12 Si4 1_0_0_0 1_0_0_0 1.6100 V 8
O12 Si3 1_0_0_0 7_0_0_0 1.6110 V 8
Lr1 Lr2 1_0_0_0 1_0_1_0 0.9470 V 8
Lr3 Lr4 1_0_0_0 1_0_0_0 4.8330 V 8
#End of data_119-TOPOS_JSW-NT

data_120-TOPOS_JSY-PPT1
_audit_creation_date                2025-02-23
_audit_creation_method              ToposPro
_chemical_formula_structural        JSY-PPT1
_chemical_formula_sum               'Lr1 O12 Si6'
_citation_special_details
;
Space Group: P63/MMC->P 63/m m c. File: JSY-PPT1.cif. 
;
_cell_length_a                      13.1221
_cell_length_b                      13.1221
_cell_length_c                      25.3767
_cell_angle_alpha                   90
_cell_angle_beta                    90
_cell_angle_gamma                   120
_cell_volume                        3784.186
_cell_formula_units_Z               10
_symmetry_space_group_name_H-M      'P 63/m m c'
_symmetry_Int_Tables_number         194
_refine_ls_R_factor_all             0
loop_
_symmetry_equiv_pos_site_id
_symmetry_equiv_pos_as_xyz
1 x,y,z
2 -x,-y,1/2+z
3 -y,x-y,z
4 -x+y,-x,z
5 x-y,x,1/2+z
6 y,-x+y,1/2+z
7 x-y,-y,-z
8 -x,-x+y,-z
9 y,x,-z
10 -y,-x,1/2-z
11 x,x-y,1/2-z
12 -x+y,y,1/2-z
13 -x,-y,-z
14 x,y,1/2-z
15 y,-x+y,-z
16 x-y,x,-z
17 -x+y,-x,1/2-z
18 -y,x-y,1/2-z
19 -x+y,y,z
20 x,x-y,z
21 -y,-x,z
22 y,x,1/2+z
23 -x,-x+y,1/2+z
24 x-y,-y,1/2+z
loop_
_atom_site_label
_atom_site_type_symbol
_atom_site_symmetry_multiplicity
_atom_site_fract_x
_atom_site_fract_y
_atom_site_fract_z
_atom_site_occupancy
O1 O 24 0.40033 0.04806 0.10237 1.0000
O2 O 24 0.31901 0.02133 0.19850 1.0000
O3 O 12 0.57344 0.14688 0.03402 1.0000
O4 O 12 0.54260 0.08520 0.18160 1.0000
O5 O 12 0.35987 0.00000 0.00000 1.0000
O6 O 12 0.40702 0.20351 0.03566 1.0000
O7 O 12 0.46702 0.23351 0.16301 1.0000
O8 O 6 0.19700 0.09850 0.25000 1.0000
O9 O 6 0.12808 0.87192 0.25000 1.0000
Si1 Si 24 0.43534 0.09860 0.04333 1.0000
Si2 Si 24 0.43240 0.09728 0.16182 1.0000
Si3 Si 12 0.23984 0.00294 0.25000 1.0000
Lr1 Lr 4 0.66667 0.33333 0.10257 1.0000
Lr2 Lr 2 0.00000 0.00000 0.00000 1.0000
Lr3 Lr 2 0.66667 0.33333 0.75000 1.0000
Lr4 Lr 2 0.66667 0.33333 0.25000 1.0000
loop_
_topos_bond_atom_site_label_1
_topos_bond_atom_site_label_2
_topos_bond_site_symmetry_1
_topos_bond_site_symmetry_2
_topos_bond_distance
_topos_bond_type
_topos_bond_multiplicity
O1 Si1 1_0_0_0 1_0_0_0 1.6100 V 24
O1 Si2 1_0_0_0 1_0_0_0 1.6120 V 24
O2 Si2 1_0_0_0 1_0_0_0 1.6100 V 24
O2 Si3 1_0_0_0 1_0_0_0 1.6110 V 24
O3 Si1 1_0_0_0 1_0_0_0 1.6100 V 24
O4 Si2 1_0_0_0 1_0_0_0 1.6120 V 24
O5 Si1 1_0_0_0 1_0_0_0 1.6070 V 24
O6 Si1 1_0_0_0 1_0_0_0 1.6070 V 24
O7 Si2 1_0_0_0 1_0_0_0 1.6100 V 24
O8 Si3 1_0_0_0 1_0_0_0 1.6100 V 12
O9 Si3 1_0_0_0 10_0_1_0 1.6080 V 12
Lr2 Lr3 1_0_0_0 1_-1_-1_-1 9.8820 V 12
#End of data_120-TOPOS_JSY-PPT1

data_121-TOPOS_JZO-NT
_audit_creation_date                2025-02-23
_audit_creation_method              ToposPro
_chemical_formula_structural        JZO-NT
_chemical_formula_sum               'Lr43 O156 Si78'
_citation_special_details
;
Space Group: I41/AMD->I 41/a m d. File: JZO-NT.cif. 
;
_cell_length_a                      43.4464
_cell_length_b                      43.4464
_cell_length_c                      25.0574
_cell_angle_alpha                   90
_cell_angle_beta                    90
_cell_angle_gamma                   90
_cell_volume                        47298.09
_cell_formula_units_Z               8
_symmetry_space_group_name_H-M      'I 41/a m d'
_symmetry_Int_Tables_number         141
_refine_ls_R_factor_all             0
loop_
_symmetry_equiv_pos_site_id
_symmetry_equiv_pos_as_xyz
1 x,y,z
2 -x,-y,z
3 x,1/2-y,1/4-z
4 -x,1/2+y,1/4-z
5 -y,-x,-z
6 y,x,-z
7 y,1/2-x,1/4+z
8 -y,1/2+x,1/4+z
9 -x,1/2-y,1/4-z
10 x,1/2+y,1/4-z
11 -x,y,z
12 x,-y,z
13 y,1/2+x,1/4+z
14 -y,1/2-x,1/4+z
15 -y,x,-z
16 y,-x,-z
17 1/2+x,1/2+y,1/2+z
18 1/2-x,1/2-y,1/2+z
19 1/2+x,-y,3/4-z
20 1/2-x,y,3/4-z
21 1/2-y,1/2-x,1/2-z
22 1/2+y,1/2+x,1/2-z
23 1/2+y,-x,3/4+z
24 1/2-y,x,3/4+z
25 1/2-x,-y,3/4-z
26 1/2+x,y,3/4-z
27 1/2-x,1/2+y,1/2+z
28 1/2+x,1/2-y,1/2+z
29 1/2+y,x,3/4+z
30 1/2-y,-x,3/4+z
31 1/2-y,1/2+x,1/2-z
32 1/2+y,1/2-x,1/2-z
loop_
_atom_site_label
_atom_site_type_symbol
_atom_site_symmetry_multiplicity
_atom_site_fract_x
_atom_site_fract_y
_atom_site_fract_z
_atom_site_occupancy
O1 O 32 0.21459 0.75445 0.26759 1.0000
O2 O 32 0.21604 0.86372 0.27292 1.0000
O3 O 32 0.05740 0.28487 0.22334 1.0000
O4 O 32 0.19403 0.76476 0.36514 1.0000
O5 O 32 0.19501 0.80884 0.29350 1.0000
O6 O 32 0.05845 0.76406 0.40188 1.0000
O7 O 32 0.25132 0.83216 0.20603 1.0000
O8 O 32 0.15527 0.76363 0.28411 1.0000
O9 O 32 0.11668 0.80968 0.29600 1.0000
O10 O 32 0.19456 0.85090 0.36908 1.0000
O11 O 32 0.09661 0.75669 0.25879 1.0000
O12 O 32 0.36091 0.83480 0.20869 1.0000
O13 O 32 0.11501 0.85647 0.36323 1.0000
O14 O 32 0.09863 0.86398 0.26313 1.0000
O15 O 32 0.30675 0.80843 0.19122 1.0000
O16 O 32 0.05855 0.40119 0.23133 1.0000
O17 O 32 0.11348 0.76171 0.35929 1.0000
O18 O 32 0.15665 0.85517 0.28746 1.0000
O19 O 32 0.04191 0.30756 0.12985 1.0000
O20 O 32 0.25813 0.77228 0.20069 1.0000
O21 O 32 0.09776 0.80884 0.41920 1.0000
O22 O 32 0.25550 0.89259 0.21349 1.0000
O23 O 32 0.27494 0.85673 0.29203 1.0000
O24 O 32 0.03938 0.38395 0.13682 1.0000
O25 O 32 0.05847 0.85330 0.39934 1.0000
O26 O 32 0.05623 0.89460 0.21218 1.0000
O27 O 32 0.04691 0.77395 0.20656 1.0000
O28 O 32 0.03908 0.80803 0.33840 1.0000
O29 O 32 0.04220 0.75115 0.30329 1.0000
O30 O 32 0.04536 0.94113 0.14678 1.0000
O31 O 32 0.05555 0.83382 0.21140 1.0000
O32 O 32 0.04222 0.34344 0.21415 1.0000
O33 O 32 0.04207 0.86396 0.29973 1.0000
O34 O 32 0.10516 0.86171 0.46683 1.0000
O35 O 32 0.05647 0.45928 0.20123 1.0000
O36 O 16 0.00000 0.81178 0.19584 1.0000
O37 O 16 0.00000 0.30049 0.20446 1.0000
O38 O 16 0.00000 0.90692 0.18221 1.0000
O39 O 16 0.00000 0.85010 0.37121 1.0000
O40 O 16 0.00000 0.38673 0.21605 1.0000
O41 O 16 0.00000 0.45976 0.37114 1.0000
O42 O 16 0.00000 0.76656 0.37364 1.0000
O43 O 16 0.00000 0.45975 0.16454 1.0000
Si1 Si 32 0.24956 0.86115 0.24589 1.0000
Si2 Si 32 0.18956 0.77263 0.30290 1.0000
Si3 Si 32 0.09421 0.77229 0.41102 1.0000
Si4 Si 32 0.06085 0.25077 0.24784 1.0000
Si5 Si 32 0.12044 0.77288 0.29920 1.0000
Si6 Si 32 0.03544 0.30908 0.19303 1.0000
Si7 Si 32 0.34333 0.80605 0.18195 1.0000
Si8 Si 32 0.19057 0.84486 0.30615 1.0000
Si9 Si 32 0.12178 0.84615 0.30263 1.0000
Si10 Si 32 0.06282 0.86397 0.24649 1.0000
Si11 Si 32 0.27062 0.80476 0.17854 1.0000
Si12 Si 32 0.03600 0.80677 0.18353 1.0000
Si13 Si 32 0.09389 0.84546 0.41249 1.0000
Si14 Si 32 0.03542 0.90672 0.16337 1.0000
Si15 Si 32 0.03505 0.37890 0.20005 1.0000
Si16 Si 32 0.03488 0.77239 0.35440 1.0000
Si17 Si 32 0.03557 0.46514 0.14915 1.0000
Si18 Si 32 0.03491 0.84395 0.35241 1.0000
Si19 Si 16 0.24996 0.24996 0.00000 1.0000
Si20 Si 16 0.36309 0.36309 0.00000 1.0000
Si21 Si 16 0.06373 0.06373 0.00000 1.0000
Lr1 Lr 32 0.15507 0.79045 0.16082 1.0000
Lr2 Lr 32 0.14837 0.80790 0.40535 1.0000
Lr3 Lr 32 0.07331 0.80812 0.31222 1.0000
Lr4 Lr 32 0.09127 0.65524 0.36578 1.0000
Lr5 Lr 32 0.15504 0.84892 0.08938 1.0000
Lr6 Lr 16 0.00000 0.78800 0.57062 1.0000
Lr7 Lr 16 0.00000 0.35157 0.07455 1.0000
Lr8 Lr 16 0.00000 0.34702 0.49125 1.0000
Lr9 Lr 16 0.00000 0.93029 0.04266 1.0000
Lr10 Lr 16 0.00000 0.80726 0.27693 1.0000
Lr11 Lr 16 0.00000 0.24517 0.24470 1.0000
Lr12 Lr 16 0.25000 0.80676 0.37500 1.0000
Lr13 Lr 16 0.25000 0.65444 0.37500 1.0000
Lr14 Lr 8 0.00000 0.25000 0.12500 1.0000
Lr15 Lr 16 0.09243 0.00000 0.36815 1.0000
Lr16 Lr 4 0.00000 0.00000 0.50000 1.0000
Lr17 Lr 4 0.00000 0.50000 0.25000 1.0000
Lr18 Lr 16 0.30607 0.80607 0.25000 1.0000
Lr19 Lr 8 0.25000 0.00000 0.37500 1.0000
loop_
_topos_bond_atom_site_label_1
_topos_bond_atom_site_label_2
_topos_bond_site_symmetry_1
_topos_bond_site_symmetry_2
_topos_bond_distance
_topos_bond_type
_topos_bond_multiplicity
O1 Si2 1_0_0_0 1_0_0_0 1.6090 V 32
O1 Si19 1_0_0_0 10_0_0_0 1.6110 V 32
O2 Si8 1_0_0_0 1_0_0_0 1.6090 V 32
O2 Si1 1_0_0_0 1_0_0_0 1.6100 V 32
O3 Si6 1_0_0_0 1_0_0_0 1.6100 V 32
O3 Si4 1_0_0_0 1_0_0_0 1.6110 V 32
O4 Si2 1_0_0_0 1_0_0_0 1.6080 V 32
O4 Si11 1_0_0_0 8_1_0_0 1.6100 V 32
O5 Si2 1_0_0_0 1_0_0_0 1.6080 V 32
O5 Si8 1_0_0_0 1_0_0_0 1.6080 V 32
O6 Si3 1_0_0_0 1_0_0_0 1.6110 V 32
O6 Si16 1_0_0_0 1_0_0_0 1.6110 V 32
O7 Si1 1_0_0_0 1_0_0_0 1.6090 V 32
O7 Si11 1_0_0_0 1_0_0_0 1.6110 V 32
O8 Si2 1_0_0_0 1_0_0_0 1.6110 V 32
O8 Si5 1_0_0_0 1_0_0_0 1.6110 V 32
O9 Si9 1_0_0_0 1_0_0_0 1.6090 V 32
O9 Si5 1_0_0_0 1_0_0_0 1.6090 V 32
O10 Si8 1_0_0_0 1_0_0_0 1.6080 V 32
O10 Si7 1_0_0_0 8_1_0_0 1.6100 V 32
O11 Si5 1_0_0_0 1_0_0_0 1.6100 V 32
O11 Si4 1_0_0_0 12_0_1_0 1.6110 V 32
O12 Si7 1_0_0_0 1_0_0_0 1.6100 V 32
O12 Si20 1_0_0_0 10_0_0_0 1.6100 V 32
O13 Si9 1_0_0_0 1_0_0_0 1.6100 V 32
O13 Si13 1_0_0_0 1_0_0_0 1.6110 V 32
O14 Si9 1_0_0_0 1_0_0_0 1.6100 V 32
O14 Si10 1_0_0_0 1_0_0_0 1.6110 V 32
O15 Si11 1_0_0_0 1_0_0_0 1.6090 V 32
O15 Si7 1_0_0_0 1_0_0_0 1.6090 V 32
O16 Si15 1_0_0_0 1_0_0_0 1.6110 V 32
O16 Si21 1_0_0_0 3_0_0_0 1.6100 V 32
O17 Si3 1_0_0_0 1_0_0_0 1.6100 V 32
O17 Si5 1_0_0_0 1_0_0_0 1.6110 V 32
O18 Si8 1_0_0_0 1_0_0_0 1.6100 V 32
O18 Si9 1_0_0_0 1_0_0_0 1.6100 V 32
O19 Si6 1_0_0_0 1_0_0_0 1.6090 V 32
O19 Si12 1_0_0_0 10_0_-1_0 1.6090 V 32
O20 Si11 1_0_0_0 1_0_0_0 1.6110 V 32
O20 Si19 1_0_0_0 10_0_0_0 1.6100 V 32
O21 Si3 1_0_0_0 1_0_0_0 1.6090 V 32
O21 Si13 1_0_0_0 1_0_0_0 1.6090 V 32
O22 Si1 1_0_0_0 1_0_0_0 1.6100 V 32
O22 Si3 1_0_0_0 23_-1_1_-1 1.6090 V 32
O23 Si1 1_0_0_0 1_0_0_0 1.6090 V 32
O23 Si7 1_0_0_0 22_-1_0_0 1.6100 V 32
O24 Si15 1_0_0_0 1_0_0_0 1.6110 V 32
O24 Si14 1_0_0_0 10_0_-1_0 1.6090 V 32
O25 Si13 1_0_0_0 1_0_0_0 1.6100 V 32
O25 Si18 1_0_0_0 1_0_0_0 1.6110 V 32
O26 Si14 1_0_0_0 1_0_0_0 1.6100 V 32
O26 Si10 1_0_0_0 1_0_0_0 1.6100 V 32
O27 Si12 1_0_0_0 1_0_0_0 1.6100 V 32
O27 Si4 1_0_0_0 12_0_1_0 1.6090 V 32
O28 Si18 1_0_0_0 1_0_0_0 1.6100 V 32
O28 Si16 1_0_0_0 1_0_0_0 1.6100 V 32
O29 Si16 1_0_0_0 1_0_0_0 1.6100 V 32
O29 Si4 1_0_0_0 12_0_1_0 1.6110 V 32
O30 Si14 1_0_0_0 1_0_0_0 1.6110 V 32
O30 Si17 1_0_0_0 10_0_0_0 1.6100 V 32
O31 Si10 1_0_0_0 1_0_0_0 1.6090 V 32
O31 Si12 1_0_0_0 1_0_0_0 1.6090 V 32
O32 Si6 1_0_0_0 1_0_0_0 1.6110 V 32
O32 Si15 1_0_0_0 1_0_0_0 1.6110 V 32
O33 Si10 1_0_0_0 1_0_0_0 1.6100 V 32
O33 Si18 1_0_0_0 1_0_0_0 1.6110 V 32
O34 Si13 1_0_0_0 1_0_0_0 1.6100 V 32
O34 Si20 1_0_0_0 27_0_0_0 1.6120 V 32
O35 Si17 1_0_0_0 1_0_0_0 1.6100 V 32
O35 Si21 1_0_0_0 3_0_0_0 1.6100 V 32
O36 Si12 1_0_0_0 1_0_0_0 1.6090 V 32
O37 Si6 1_0_0_0 1_0_0_0 1.6100 V 32
O38 Si14 1_0_0_0 1_0_0_0 1.6100 V 32
O39 Si18 1_0_0_0 1_0_0_0 1.6110 V 32
O40 Si15 1_0_0_0 1_0_0_0 1.6110 V 32
O41 Si17 1_0_0_0 21_0_0_0 1.6100 V 32
O42 Si16 1_0_0_0 1_0_0_0 1.6100 V 32
O43 Si17 1_0_0_0 1_0_0_0 1.6100 V 32
Lr1 Lr5 1_0_0_0 1_0_0_0 3.1080 V 32
Lr1 Lr13 1_0_0_0 22_-1_0_0 1.9740 V 32
Lr4 Lr5 1_0_0_0 8_1_0_0 2.6810 V 32
Lr4 Lr8 1_0_0_0 2_0_1_0 5.0610 V 32
Lr5 Lr5 1_0_0_0 5_1_1_0 4.4860 V 16
Lr6 Lr8 1_0_0_0 4_0_0_1 5.3660 V 16
Lr6 Lr19 1_0_0_0 5_0_1_1 2.1410 V 16
Lr8 Lr15 1_0_0_0 7_0_0_0 4.1270 V 16
Lr10 Lr11 1_0_0_0 2_0_1_0 2.4170 V 16
Lr15 Lr16 1_0_0_0 1_0_0_0 5.2000 V 16
#End of data_121-TOPOS_JZO-NT

data_122-TOPOS_JZT-NT
_audit_creation_date                2025-02-23
_audit_creation_method              ToposPro
_chemical_formula_structural        JZT-NT
_chemical_formula_sum               'Lr11 O40 Si20'
_citation_special_details
;
Space Group: C2/C->C 2/c. File: JZT-NT.cif. 
;
_cell_length_a                      21.4468
_cell_length_b                      21.3498
_cell_length_c                      14.5285
_cell_angle_alpha                   90
_cell_angle_beta                    108.87
_cell_angle_gamma                   90
_cell_volume                        6294.847
_cell_formula_units_Z               4
_symmetry_space_group_name_H-M      'C 2/c'
_symmetry_Int_Tables_number         15
_refine_ls_R_factor_all             0
loop_
_symmetry_equiv_pos_site_id
_symmetry_equiv_pos_as_xyz
1 x,y,z
2 -x,y,1/2-z
3 -x,-y,-z
4 x,-y,1/2+z
5 1/2+x,1/2+y,z
6 1/2-x,1/2+y,1/2-z
7 1/2-x,1/2-y,-z
8 1/2+x,1/2-y,1/2+z
loop_
_atom_site_label
_atom_site_type_symbol
_atom_site_symmetry_multiplicity
_atom_site_fract_x
_atom_site_fract_y
_atom_site_fract_z
_atom_site_occupancy
O1 O 8 0.20287 0.28622 0.65347 1.0000
O2 O 8 0.10076 0.20791 0.61751 1.0000
O3 O 8 0.23698 0.06509 0.58905 1.0000
O4 O 8 0.37418 0.48529 0.51931 1.0000
O5 O 8 0.29382 0.36916 0.74438 1.0000
O6 O 8 0.35777 0.45796 0.68720 1.0000
O7 O 8 0.24240 0.37104 0.55445 1.0000
O8 O 8 0.03200 0.13048 0.68688 1.0000
O9 O 8 0.43526 0.22036 0.71377 1.0000
O10 O 8 0.31837 0.47575 0.83932 1.0000
O11 O 8 0.12767 0.08738 0.62798 1.0000
O12 O 8 0.46665 0.42481 0.65426 1.0000
O13 O 8 0.01828 0.12874 0.50052 1.0000
O14 O 8 0.05643 0.04347 0.82171 1.0000
O15 O 8 0.32598 0.15676 0.62688 1.0000
O16 O 8 0.37923 0.22700 0.52481 1.0000
O17 O 8 0.49598 0.30724 0.83851 1.0000
O18 O 8 0.32238 0.27962 0.64062 1.0000
O19 O 8 0.19984 0.18169 0.55780 1.0000
O20 O 8 0.41492 0.39711 0.85037 1.0000
Si1 Si 8 0.41035 0.47769 0.63452 1.0000
Si2 Si 8 0.26545 0.32625 0.64874 1.0000
Si3 Si 8 0.16790 0.03558 0.58949 1.0000
Si4 Si 8 0.15568 0.23793 0.57703 1.0000
Si5 Si 8 0.06968 0.13854 0.60813 1.0000
Si6 Si 8 0.49074 0.37512 0.88367 1.0000
Si7 Si 8 0.34639 0.42524 0.78034 1.0000
Si8 Si 8 0.25599 0.13232 0.55551 1.0000
Si9 Si 8 0.36568 0.22088 0.62728 1.0000
Si10 Si 4 0.50000 0.26386 0.75000 1.0000
Si11 Si 4 0.00000 0.08674 0.75000 1.0000
Lr1 Lr 8 0.38533 0.35634 0.60097 1.0000
Lr2 Lr 8 0.27690 0.19771 0.90467 1.0000
Lr3 Lr 8 0.06430 0.58375 0.43140 1.0000
Lr4 Lr 4 0.50000 0.42584 0.75000 1.0000
Lr5 Lr 4 0.50000 0.50000 0.50000 1.0000
Lr6 Lr 4 0.25000 0.25000 0.50000 1.0000
Lr7 Lr 4 0.00000 0.50000 0.50000 1.0000
Lr8 Lr 4 0.25000 0.75000 0.50000 1.0000
loop_
_topos_bond_atom_site_label_1
_topos_bond_atom_site_label_2
_topos_bond_site_symmetry_1
_topos_bond_site_symmetry_2
_topos_bond_distance
_topos_bond_type
_topos_bond_multiplicity
O1 Si4 1_0_0_0 1_0_0_0 1.6100 V 8
O1 Si2 1_0_0_0 1_0_0_0 1.6110 V 8
O2 Si4 1_0_0_0 1_0_0_0 1.6100 V 8
O2 Si5 1_0_0_0 1_0_0_0 1.6120 V 8
O3 Si8 1_0_0_0 1_0_0_0 1.6100 V 8
O3 Si3 1_0_0_0 1_0_0_0 1.6120 V 8
O4 Si1 1_0_0_0 1_0_0_0 1.6090 V 8
O4 Si3 1_0_0_0 7_0_0_1 1.6090 V 8
O5 Si2 1_0_0_0 1_0_0_0 1.6100 V 8
O5 Si7 1_0_0_0 1_0_0_0 1.6110 V 8
O6 Si7 1_0_0_0 1_0_0_0 1.6100 V 8
O6 Si1 1_0_0_0 1_0_0_0 1.6100 V 8
O7 Si2 1_0_0_0 1_0_0_0 1.6120 V 8
O7 Si8 1_0_0_0 7_0_0_1 1.6110 V 8
O8 Si5 1_0_0_0 1_0_0_0 1.6090 V 8
O8 Si11 1_0_0_0 1_0_0_0 1.6100 V 8
O9 Si9 1_0_0_0 1_0_0_0 1.6100 V 8
O9 Si10 1_0_0_0 1_0_0_0 1.6110 V 8
O10 Si7 1_0_0_0 1_0_0_0 1.6100 V 8
O10 Si3 1_0_0_0 6_0_0_1 1.6100 V 8
O11 Si5 1_0_0_0 1_0_0_0 1.6100 V 8
O11 Si3 1_0_0_0 1_0_0_0 1.6100 V 8
O12 Si1 1_0_0_0 1_0_0_0 1.6100 V 8
O12 Si6 1_0_0_0 2_1_0_1 1.6090 V 8
O13 Si5 1_0_0_0 1_0_0_0 1.6090 V 8
O13 Si6 1_0_0_0 8_-1_0_-1 1.6090 V 8
O14 Si11 1_0_0_0 1_0_0_0 1.6090 V 8
O14 Si1 1_0_0_0 6_0_-1_1 1.6100 V 8
O15 Si8 1_0_0_0 1_0_0_0 1.6110 V 8
O15 Si9 1_0_0_0 1_0_0_0 1.6110 V 8
O16 Si9 1_0_0_0 1_0_0_0 1.6120 V 8
O16 Si4 1_0_0_0 7_0_0_1 1.6110 V 8
O17 Si10 1_0_0_0 1_0_0_0 1.6100 V 8
O17 Si6 1_0_0_0 1_0_0_0 1.6100 V 8
O18 Si2 1_0_0_0 1_0_0_0 1.6090 V 8
O18 Si9 1_0_0_0 1_0_0_0 1.6090 V 8
O19 Si4 1_0_0_0 1_0_0_0 1.6090 V 8
O19 Si8 1_0_0_0 1_0_0_0 1.6090 V 8
O20 Si7 1_0_0_0 1_0_0_0 1.6090 V 8
O20 Si6 1_0_0_0 1_0_0_0 1.6090 V 8
Lr2 Lr3 1_0_0_0 6_0_-1_1 4.2360 V 8
Lr2 Lr8 1_0_0_0 4_0_1_0 2.0040 V 8
Lr3 Lr7 1_0_0_0 1_0_0_0 2.6420 V 8
Lr3 Lr3 1_0_0_0 2_0_0_0 5.0980 V 4
#End of data_122-TOPOS_JZT-NT

data_123-TOPOS_KFI-PPT1
_audit_creation_date                2025-02-23
_audit_creation_method              ToposPro
_chemical_formula_structural        KFI-PPT1
_chemical_formula_sum               'Lr1 O12 Si6'
_citation_special_details
;
Space Group: IM-3M->I m -3 m. File: KFI-PPT1.cif. 
;
_cell_length_a                      18.578
_cell_length_b                      18.578
_cell_length_c                      18.578
_cell_angle_alpha                   90
_cell_angle_beta                    90
_cell_angle_gamma                   90
_cell_volume                        6412.049
_cell_formula_units_Z               16
_symmetry_space_group_name_H-M      'I m -3 m'
_symmetry_Int_Tables_number         229
_refine_ls_R_factor_all             0
loop_
_symmetry_equiv_pos_site_id
_symmetry_equiv_pos_as_xyz
1 x,y,z
2 -x,-y,z
3 x,-y,-z
4 -x,y,-z
5 z,x,y
6 y,z,x
7 -z,-x,y
8 -y,z,-x
9 z,-x,-y
10 -y,-z,x
11 -z,x,-y
12 y,-z,-x
13 -y,-x,-z
14 y,x,-z
15 y,-x,z
16 -y,x,z
17 -x,-z,-y
18 -z,-y,-x
19 x,z,-y
20 -z,y,x
21 x,-z,y
22 z,y,-x
23 -x,z,y
24 z,-y,x
25 -x,-y,-z
26 x,y,-z
27 -x,y,z
28 x,-y,z
29 -z,-x,-y
30 -y,-z,-x
31 z,x,-y
32 y,-z,x
33 -z,x,y
34 y,z,-x
35 z,-x,y
36 -y,z,x
37 y,x,z
38 -y,-x,z
39 -y,x,-z
40 y,-x,-z
41 x,z,y
42 z,y,x
43 -x,-z,y
44 z,-y,-x
45 -x,z,-y
46 -z,-y,x
47 x,-z,-y
48 -z,y,-x
49 1/2+x,1/2+y,1/2+z
50 1/2-x,1/2-y,1/2+z
51 1/2+x,1/2-y,1/2-z
52 1/2-x,1/2+y,1/2-z
53 1/2+z,1/2+x,1/2+y
54 1/2+y,1/2+z,1/2+x
55 1/2-z,1/2-x,1/2+y
56 1/2-y,1/2+z,1/2-x
57 1/2+z,1/2-x,1/2-y
58 1/2-y,1/2-z,1/2+x
59 1/2-z,1/2+x,1/2-y
60 1/2+y,1/2-z,1/2-x
61 1/2-y,1/2-x,1/2-z
62 1/2+y,1/2+x,1/2-z
63 1/2+y,1/2-x,1/2+z
64 1/2-y,1/2+x,1/2+z
65 1/2-x,1/2-z,1/2-y
66 1/2-z,1/2-y,1/2-x
67 1/2+x,1/2+z,1/2-y
68 1/2-z,1/2+y,1/2+x
69 1/2+x,1/2-z,1/2+y
70 1/2+z,1/2+y,1/2-x
71 1/2-x,1/2+z,1/2+y
72 1/2+z,1/2-y,1/2+x
73 1/2-x,1/2-y,1/2-z
74 1/2+x,1/2+y,1/2-z
75 1/2-x,1/2+y,1/2+z
76 1/2+x,1/2-y,1/2+z
77 1/2-z,1/2-x,1/2-y
78 1/2-y,1/2-z,1/2-x
79 1/2+z,1/2+x,1/2-y
80 1/2+y,1/2-z,1/2+x
81 1/2-z,1/2+x,1/2+y
82 1/2+y,1/2+z,1/2-x
83 1/2+z,1/2-x,1/2+y
84 1/2-y,1/2+z,1/2+x
85 1/2+y,1/2+x,1/2+z
86 1/2-y,1/2-x,1/2+z
87 1/2-y,1/2+x,1/2-z
88 1/2+y,1/2-x,1/2-z
89 1/2+x,1/2+z,1/2+y
90 1/2+z,1/2+y,1/2+x
91 1/2-x,1/2-z,1/2+y
92 1/2+z,1/2-y,1/2-x
93 1/2-x,1/2+z,1/2-y
94 1/2-z,1/2-y,1/2+x
95 1/2+x,1/2-z,1/2-y
96 1/2-z,1/2+y,1/2-x
loop_
_atom_site_label
_atom_site_type_symbol
_atom_site_symmetry_multiplicity
_atom_site_fract_x
_atom_site_fract_y
_atom_site_fract_z
_atom_site_occupancy
O1 O 48 0.00000 0.18560 0.33480 1.0000
O2 O 48 0.09180 0.24480 0.24480 1.0000
O3 O 48 0.11580 0.25000 0.38420 1.0000
O4 O 48 0.12710 0.12710 0.31490 1.0000
Si1 Si 96 0.08370 0.20200 0.31970 1.0000
Lr1 Lr 8 0.25000 0.25000 0.25000 1.0000
Lr2 Lr 6 0.00000 0.00000 0.50000 1.0000
Lr3 Lr 2 0.00000 0.00000 0.00000 1.0000
loop_
_topos_bond_atom_site_label_1
_topos_bond_atom_site_label_2
_topos_bond_site_symmetry_1
_topos_bond_site_symmetry_2
_topos_bond_distance
_topos_bond_type
_topos_bond_multiplicity
O1 Si1 1_0_0_0 1_0_0_0 1.6090 V 96
O2 Si1 1_0_0_0 1_0_0_0 1.6100 V 96
O3 Si1 1_0_0_0 1_0_0_0 1.6080 V 96
O4 Si1 1_0_0_0 1_0_0_0 1.6110 V 96
Lr2 Lr2 1_0_0_0 54_0_-1_0 9.2890 V 12
Lr2 Lr3 1_0_0_0 1_0_0_1 9.2890 V 12
#End of data_123-TOPOS_KFI-PPT1

data_124-TOPOS_LAU-PPT1
_audit_creation_date                2025-02-23
_audit_creation_method              ToposPro
_chemical_formula_structural        LAU-PPT1
_chemical_formula_sum               'Lr1 O4 Si2'
_citation_special_details
;
Space Group: C2/M->C 2/m. File: LAU-PPT1.cif. 
;
_cell_length_a                      14.587
_cell_length_b                      12.877
_cell_length_c                      7.613
_cell_angle_alpha                   90
_cell_angle_beta                    111.159
_cell_angle_gamma                   90
_cell_volume                        1333.594
_cell_formula_units_Z               12
_symmetry_space_group_name_H-M      'C 2/m'
_symmetry_Int_Tables_number         12
_refine_ls_R_factor_all             0
loop_
_symmetry_equiv_pos_site_id
_symmetry_equiv_pos_as_xyz
1 x,y,z
2 -x,y,-z
3 -x,-y,-z
4 x,-y,z
5 1/2+x,1/2+y,z
6 1/2-x,1/2+y,-z
7 1/2-x,1/2-y,-z
8 1/2+x,1/2-y,z
loop_
_atom_site_label
_atom_site_type_symbol
_atom_site_symmetry_multiplicity
_atom_site_fract_x
_atom_site_fract_y
_atom_site_fract_z
_atom_site_occupancy
O1 O 8 0.35140 0.34460 0.27840 1.0000
O2 O 8 0.16980 0.30820 0.25370 1.0000
O3 O 8 0.30110 0.37230 0.57360 1.0000
O4 O 8 0.36310 0.36460 0.94330 1.0000
O5 O 8 0.48090 0.30970 0.76740 1.0000
O6 O 4 0.23600 0.50000 0.28570 1.0000
O7 O 4 0.45070 0.50000 0.20990 1.0000
Si1 Si 8 0.26460 0.38130 0.34780 1.0000
Si2 Si 8 0.36880 0.30960 0.75760 1.0000
Si3 Si 8 0.42100 0.37980 0.16600 1.0000
Lr1 Lr 4 0.40835 0.50000 0.77635 1.0000
Lr2 Lr 2 0.50000 0.50000 0.50000 1.0000
Lr3 Lr 2 0.00000 0.50000 0.50000 1.0000
Lr4 Lr 2 0.50000 0.00000 0.00000 1.0000
Lr5 Lr 2 0.50000 0.50000 0.00000 1.0000
loop_
_topos_bond_atom_site_label_1
_topos_bond_atom_site_label_2
_topos_bond_site_symmetry_1
_topos_bond_site_symmetry_2
_topos_bond_distance
_topos_bond_type
_topos_bond_multiplicity
O1 Si1 1_0_0_0 1_0_0_0 1.6090 V 8
O1 Si3 1_0_0_0 1_0_0_0 1.6110 V 8
O2 Si1 1_0_0_0 1_0_0_0 1.6110 V 8
O2 Si2 1_0_0_0 7_0_0_1 1.6090 V 8
O3 Si2 1_0_0_0 1_0_0_0 1.6100 V 8
O3 Si1 1_0_0_0 1_0_0_0 1.6100 V 8
O4 Si2 1_0_0_0 1_0_0_0 1.6100 V 8
O4 Si3 1_0_0_0 1_0_0_1 1.6100 V 8
O5 Si2 1_0_0_0 1_0_0_0 1.6100 V 8
O5 Si3 1_0_0_0 2_1_0_1 1.6110 V 8
O6 Si1 1_0_0_0 1_0_0_0 1.6100 V 8
O7 Si3 1_0_0_0 1_0_0_0 1.6100 V 8
Lr1 Lr2 1_0_0_0 1_0_0_0 2.8710 V 4
Lr1 Lr5 1_0_0_0 1_0_0_1 1.7440 V 4
Lr3 Lr4 1_0_0_0 5_-1_0_0 3.8060 V 4
#End of data_124-TOPOS_LAU-PPT1

data_125-TOPOS_LEV-PPT1
_audit_creation_date                2025-02-23
_audit_creation_method              ToposPro
_chemical_formula_structural        LEV-PPT1
_chemical_formula_sum               'Lr1 O12 Si6'
_citation_special_details
;
Space Group: R-3M->R -3 m. File: LEV-PPT1.cif. 
;
_cell_length_a                      13.168
_cell_length_b                      13.168
_cell_length_c                      22.578
_cell_angle_alpha                   90
_cell_angle_beta                    90
_cell_angle_gamma                   120
_cell_volume                        3390.437
_cell_formula_units_Z               9
_symmetry_space_group_name_H-M      'R -3 m'
_symmetry_Int_Tables_number         166
_refine_ls_R_factor_all             0
loop_
_symmetry_equiv_pos_site_id
_symmetry_equiv_pos_as_xyz
1 x,y,z
2 -y,x-y,z
3 -x+y,-x,z
4 x-y,-y,-z
5 -x,-x+y,-z
6 y,x,-z
7 -x,-y,-z
8 y,-x+y,-z
9 x-y,x,-z
10 -x+y,y,z
11 x,x-y,z
12 -y,-x,z
13 2/3+x,1/3+y,1/3+z
14 1/3+x,2/3+y,2/3+z
15 2/3-y,1/3+x-y,1/3+z
16 1/3-y,2/3+x-y,2/3+z
17 2/3-x+y,1/3-x,1/3+z
18 1/3-x+y,2/3-x,2/3+z
19 2/3+x-y,1/3-y,1/3-z
20 1/3+x-y,2/3-y,2/3-z
21 2/3-x,1/3-x+y,1/3-z
22 1/3-x,2/3-x+y,2/3-z
23 2/3+y,1/3+x,1/3-z
24 1/3+y,2/3+x,2/3-z
25 2/3-x,1/3-y,1/3-z
26 1/3-x,2/3-y,2/3-z
27 2/3+y,1/3-x+y,1/3-z
28 1/3+y,2/3-x+y,2/3-z
29 2/3+x-y,1/3+x,1/3-z
30 1/3+x-y,2/3+x,2/3-z
31 2/3-x+y,1/3+y,1/3+z
32 1/3-x+y,2/3+y,2/3+z
33 2/3+x,1/3+x-y,1/3+z
34 1/3+x,2/3+x-y,2/3+z
35 2/3-y,1/3-x,1/3+z
36 1/3-y,2/3-x,2/3+z
loop_
_atom_site_label
_atom_site_type_symbol
_atom_site_symmetry_multiplicity
_atom_site_fract_x
_atom_site_fract_y
_atom_site_fract_z
_atom_site_occupancy
O1 O 36 0.03470 0.34480 0.10970 1.0000
O2 O 18 0.09550 0.19100 0.07710 1.0000
O3 O 18 0.87240 0.12760 0.08620 1.0000
O4 O 18 0.11270 0.88730 0.48810 1.0000
O5 O 18 0.00000 0.26780 0.00000 1.0000
Si1 Si 36 0.00050 0.23270 0.06830 1.0000
Si2 Si 18 0.23970 0.00000 0.50000 1.0000
Lr1 Lr 3 0.00000 0.00000 0.00000 1.0000
Lr2 Lr 6 0.66667 0.33333 0.05301 1.0000
loop_
_topos_bond_atom_site_label_1
_topos_bond_atom_site_label_2
_topos_bond_site_symmetry_1
_topos_bond_site_symmetry_2
_topos_bond_distance
_topos_bond_type
_topos_bond_multiplicity
O1 Si1 1_0_0_0 1_0_0_0 1.6100 V 36
O1 Si2 1_0_0_0 18_0_0_-1 1.6090 V 36
O2 Si1 1_0_0_0 1_0_0_0 1.6100 V 36
O3 Si1 1_0_0_0 1_1_0_0 1.6090 V 36
O4 Si2 1_0_0_0 1_0_1_0 1.6090 V 36
O5 Si1 1_0_0_0 1_0_0_0 1.6110 V 36
Lr2 Lr2 1_0_0_0 4_1_1_0 7.9700 V 9
#End of data_125-TOPOS_LEV-PPT1

data_126-TOPOS_LIO-PPT1
_audit_creation_date                2025-02-23
_audit_creation_method              ToposPro
_chemical_formula_structural        LIO-PPT1
_chemical_formula_sum               'Lr1 O12 Si6'
_citation_special_details
;
Space Group: P-6M2->P -6 m 2. File: LIO-PPT1.cif. 
;
_cell_length_a                      12.281
_cell_length_b                      12.281
_cell_length_c                      15.632
_cell_angle_alpha                   90
_cell_angle_beta                    90
_cell_angle_gamma                   120
_cell_volume                        2041.797
_cell_formula_units_Z               6
_symmetry_space_group_name_H-M      'P -6 m 2'
_symmetry_Int_Tables_number         187
_refine_ls_R_factor_all             0
loop_
_symmetry_equiv_pos_site_id
_symmetry_equiv_pos_as_xyz
1 x,y,z
2 -y,x-y,z
3 -x+y,-x,z
4 -y,-x,-z
5 x,x-y,-z
6 -x+y,y,-z
7 -x+y,y,z
8 x,x-y,z
9 -y,-x,z
10 x,y,-z
11 -x+y,-x,-z
12 -y,x-y,-z
loop_
_atom_site_label
_atom_site_type_symbol
_atom_site_symmetry_multiplicity
_atom_site_fract_x
_atom_site_fract_y
_atom_site_fract_z
_atom_site_occupancy
O1 O 12 0.31660 0.97700 0.08400 1.0000
O2 O 12 0.30040 0.98300 0.25120 1.0000
O3 O 12 0.35030 0.99410 0.41590 1.0000
O4 O 6 0.23140 0.76860 0.17320 1.0000
O5 O 6 0.11580 0.88420 0.36320 1.0000
O6 O 6 0.47080 0.94160 0.18130 1.0000
O7 O 6 0.25880 0.12940 0.35210 1.0000
O8 O 3 0.39290 0.19645 0.50000 1.0000
O9 O 3 0.56275 0.12550 0.50000 1.0000
O10 O 3 0.27360 0.13680 0.00000 1.0000
O11 O 3 0.10430 0.89570 0.00000 1.0000
Si1 Si 12 0.32990 0.91740 0.17240 1.0000
Si2 Si 12 0.25630 0.99750 0.34530 1.0000
Si3 Si 6 0.41450 0.07770 0.50000 1.0000
Si4 Si 6 0.25250 0.99660 0.00000 1.0000
Lr1 Lr 2 0.00000 0.00000 0.17257 1.0000
Lr2 Lr 1 0.33333 0.66667 0.50000 1.0000
Lr3 Lr 1 0.33333 0.66667 0.00000 1.0000
Lr4 Lr 1 0.00000 0.00000 0.50000 1.0000
Lr5 Lr 1 0.66667 0.33333 0.00000 1.0000
loop_
_topos_bond_atom_site_label_1
_topos_bond_atom_site_label_2
_topos_bond_site_symmetry_1
_topos_bond_site_symmetry_2
_topos_bond_distance
_topos_bond_type
_topos_bond_multiplicity
O1 Si4 1_0_0_0 1_0_0_0 1.6100 V 12
O1 Si1 1_0_0_0 1_0_0_0 1.6100 V 12
O2 Si2 1_0_0_0 1_0_0_0 1.6080 V 12
O2 Si1 1_0_0_0 1_0_0_0 1.6090 V 12
O3 Si2 1_0_0_0 1_0_0_0 1.6130 V 12
O3 Si3 1_0_0_0 1_0_1_0 1.6110 V 12
O4 Si1 1_0_0_0 1_0_0_0 1.6100 V 12
O5 Si2 1_0_0_0 1_0_0_0 1.6100 V 12
O6 Si1 1_0_0_0 1_0_0_0 1.6090 V 12
O7 Si2 1_0_0_0 1_0_-1_0 1.6080 V 12
O8 Si3 1_0_0_0 1_0_0_0 1.6080 V 6
O9 Si3 1_0_0_0 1_0_0_0 1.6100 V 6
O10 Si4 1_0_0_0 5_0_1_0 1.6080 V 6
O11 Si4 1_0_0_0 1_0_0_0 1.6100 V 6
#End of data_126-TOPOS_LIO-PPT1

data_127-TOPOS_LIT-PPT1
_audit_creation_date                2025-02-23
_audit_creation_method              ToposPro
_chemical_formula_structural        LIT-PPT1
_chemical_formula_sum               'Lr3 O13 Si6'
_citation_special_details
;
Space Group: PNMA->P n m a. File: LIT-PPT1.cif. 
;
_cell_length_a                      14.844
_cell_length_b                      8.594
_cell_length_c                      9.784
_cell_angle_alpha                   90
_cell_angle_beta                    90
_cell_angle_gamma                   90
_cell_volume                        1248.138
_cell_formula_units_Z               4
_symmetry_space_group_name_H-M      'P n m a'
_symmetry_Int_Tables_number         62
_refine_ls_R_factor_all             0
loop_
_symmetry_equiv_pos_site_id
_symmetry_equiv_pos_as_xyz
1 x,y,z
2 1/2-x,-y,1/2+z
3 1/2+x,1/2-y,1/2-z
4 -x,1/2+y,-z
5 -x,-y,-z
6 1/2+x,y,1/2-z
7 1/2-x,1/2+y,1/2+z
8 x,1/2-y,z
loop_
_atom_site_label
_atom_site_type_symbol
_atom_site_symmetry_multiplicity
_atom_site_fract_x
_atom_site_fract_y
_atom_site_fract_z
_atom_site_occupancy
O1 O 8 0.55550 0.95950 0.09900 1.0000
O2 O 8 0.44060 0.03160 0.29350 1.0000
O3 O 8 0.61470 0.04330 0.34130 1.0000
O4 O 8 0.71560 0.45990 0.81650 1.0000
O5 O 8 0.70680 0.54240 0.55810 1.0000
O6 O 4 0.53930 0.25000 0.17950 1.0000
O7 O 4 0.67990 0.75000 0.75130 1.0000
O8 O 4 0.66130 0.75000 0.37340 1.0000
Si1 Si 8 0.53750 0.07110 0.22830 1.0000
Si2 Si 8 0.66540 0.57100 0.70810 1.0000
Si3 Si 8 0.69180 0.57220 0.39720 1.0000
Lr1 Lr 4 0.54403 0.25000 0.55674 1.0000
Lr2 Lr 4 0.50000 0.25000 0.00000 1.0000
Lr3 Lr 4 0.70750 0.25000 0.48778 1.0000
loop_
_topos_bond_atom_site_label_1
_topos_bond_atom_site_label_2
_topos_bond_site_symmetry_1
_topos_bond_site_symmetry_2
_topos_bond_distance
_topos_bond_type
_topos_bond_multiplicity
O1 Si1 1_0_0_0 1_0_1_0 1.6100 V 8
O2 Si1 1_0_0_0 1_0_0_0 1.6100 V 8
O2 Si2 1_0_0_0 4_1_-1_1 1.6100 V 8
O3 Si1 1_0_0_0 1_0_0_0 1.6100 V 8
O3 Si3 1_0_0_0 8_0_0_0 1.6110 V 8
O4 Si2 1_0_0_0 1_0_0_0 1.6100 V 8
O4 Si3 1_0_0_0 2_1_1_0 1.6090 V 8
O5 Si2 1_0_0_0 1_0_0_0 1.6100 V 8
O5 Si3 1_0_0_0 1_0_0_0 1.6100 V 8
O6 Si1 1_0_0_0 1_0_0_0 1.6100 V 8
O7 Si2 1_0_0_0 1_0_0_0 1.6100 V 8
O8 Si3 1_0_0_0 1_0_0_0 1.6110 V 8
Lr1 Lr3 1_0_0_0 1_0_0_0 2.5190 V 4
Lr1 Lr2 1_0_0_0 1_0_0_1 4.3860 V 4
Lr2 Lr3 1_0_0_0 3_-1_0_0 4.3440 V 4
Lr2 Lr2 1_0_0_0 4_1_0_0 4.2970 V 4
#End of data_127-TOPOS_LIT-PPT1

data_128-TOPOS_LOS-PPT1
_audit_creation_date                2025-02-23
_audit_creation_method              ToposPro
_chemical_formula_structural        LOS-PPT1
_chemical_formula_sum               'Lr1 O12 Si6'
_citation_special_details
;
Space Group: P63/MMC->P 63/m m c. File: LOS-PPT1.cif. 
;
_cell_length_a                      12.607
_cell_length_b                      12.607
_cell_length_c                      10.34
_cell_angle_alpha                   90
_cell_angle_beta                    90
_cell_angle_gamma                   120
_cell_volume                        1423.229
_cell_formula_units_Z               4
_symmetry_space_group_name_H-M      'P 63/m m c'
_symmetry_Int_Tables_number         194
_refine_ls_R_factor_all             0
loop_
_symmetry_equiv_pos_site_id
_symmetry_equiv_pos_as_xyz
1 x,y,z
2 -x,-y,1/2+z
3 -y,x-y,z
4 -x+y,-x,z
5 x-y,x,1/2+z
6 y,-x+y,1/2+z
7 x-y,-y,-z
8 -x,-x+y,-z
9 y,x,-z
10 -y,-x,1/2-z
11 x,x-y,1/2-z
12 -x+y,y,1/2-z
13 -x,-y,-z
14 x,y,1/2-z
15 y,-x+y,-z
16 x-y,x,-z
17 -x+y,-x,1/2-z
18 -y,x-y,1/2-z
19 -x+y,y,z
20 x,x-y,z
21 -y,-x,z
22 y,x,1/2+z
23 -x,-x+y,1/2+z
24 x-y,-y,1/2+z
loop_
_atom_site_label
_atom_site_type_symbol
_atom_site_symmetry_multiplicity
_atom_site_fract_x
_atom_site_fract_y
_atom_site_fract_z
_atom_site_occupancy
O1 O 24 0.33720 0.03040 0.12290 1.0000
O2 O 6 0.47110 0.23555 0.25000 1.0000
O3 O 6 0.53185 0.06370 0.25000 1.0000
O4 O 12 0.11630 0.88370 0.03260 1.0000
Si1 Si 12 0.41950 0.09000 0.25000 1.0000
Si2 Si 12 0.24820 0.00000 0.00000 1.0000
Lr1 Lr 2 0.00000 0.00000 0.25000 1.0000
Lr2 Lr 2 0.66667 0.33333 0.75000 1.0000
loop_
_topos_bond_atom_site_label_1
_topos_bond_atom_site_label_2
_topos_bond_site_symmetry_1
_topos_bond_site_symmetry_2
_topos_bond_distance
_topos_bond_type
_topos_bond_multiplicity
O1 Si1 1_0_0_0 1_0_0_0 1.6090 V 24
O1 Si2 1_0_0_0 1_0_0_0 1.6100 V 24
O2 Si1 1_0_0_0 1_0_0_0 1.6110 V 12
O3 Si1 1_0_0_0 1_0_0_0 1.6080 V 12
O4 Si2 1_0_0_0 1_0_1_0 1.6090 V 24
#End of data_128-TOPOS_LOS-PPT1

data_129-TOPOS_LOV-PPT1
_audit_creation_date                2025-02-23
_audit_creation_method              ToposPro
_chemical_formula_structural        LOV-PPT1
_chemical_formula_sum               'Lr2 O6 Si3'
_citation_special_details
;
Space Group: P42/MMC->P 42/m m c. File: LOV-PPT1.cif. 
;
_cell_length_a                      7.163
_cell_length_b                      7.163
_cell_length_c                      20.876
_cell_angle_alpha                   90
_cell_angle_beta                    90
_cell_angle_gamma                   90
_cell_volume                        1071.118
_cell_formula_units_Z               6
_symmetry_space_group_name_H-M      'P 42/m m c'
_symmetry_Int_Tables_number         131
_refine_ls_R_factor_all             0
loop_
_symmetry_equiv_pos_site_id
_symmetry_equiv_pos_as_xyz
1 x,y,z
2 -x,-y,z
3 x,-y,-z
4 -x,y,-z
5 -y,-x,1/2-z
6 y,x,1/2-z
7 y,-x,1/2+z
8 -y,x,1/2+z
9 -x,-y,-z
10 x,y,-z
11 -x,y,z
12 x,-y,z
13 y,x,1/2+z
14 -y,-x,1/2+z
15 -y,x,1/2-z
16 y,-x,1/2-z
loop_
_atom_site_label
_atom_site_type_symbol
_atom_site_symmetry_multiplicity
_atom_site_fract_x
_atom_site_fract_y
_atom_site_fract_z
_atom_site_occupancy
O1 O 16 0.18400 0.68330 0.10610 1.0000
O2 O 4 0.25580 0.50000 0.00000 1.0000
O3 O 4 0.50000 0.50000 0.09430 1.0000
O4 O 4 0.00000 0.00000 0.09700 1.0000
O5 O 8 0.00000 0.81660 0.20530 1.0000
Si1 Si 8 0.00000 0.79440 0.12850 1.0000
Si2 Si 8 0.28140 0.50000 0.07650 1.0000
Si3 Si 2 0.00000 0.00000 0.75000 1.0000
Lr1 Lr 4 0.50000 0.00000 0.20786 1.0000
Lr2 Lr 2 0.00000 0.50000 0.00000 1.0000
Lr3 Lr 2 0.50000 0.00000 0.00000 1.0000
Lr4 Lr 2 0.00000 0.00000 0.00000 1.0000
Lr5 Lr 2 0.50000 0.50000 0.25000 1.0000
loop_
_topos_bond_atom_site_label_1
_topos_bond_atom_site_label_2
_topos_bond_site_symmetry_1
_topos_bond_site_symmetry_2
_topos_bond_distance
_topos_bond_type
_topos_bond_multiplicity
O1 Si1 1_0_0_0 1_0_0_0 1.6090 V 16
O1 Si2 1_0_0_0 1_0_0_0 1.6100 V 16
O2 Si2 1_0_0_0 1_0_0_0 1.6080 V 8
O3 Si2 1_0_0_0 1_0_0_0 1.6090 V 8
O4 Si1 1_0_0_0 1_0_-1_0 1.6130 V 8
O5 Si1 1_0_0_0 1_0_0_0 1.6110 V 8
O5 Si3 1_0_0_0 3_0_1_1 1.6110 V 8
Lr1 Lr5 1_0_0_0 1_0_0_0 3.6880 V 8
Lr1 Lr3 1_0_0_0 1_0_0_0 4.3390 V 4
Lr3 Lr4 1_0_0_0 1_0_0_0 3.5810 V 4
#End of data_129-TOPOS_LOV-PPT1

data_130-TOPOS_LTA-PPT1
_audit_creation_date                2025-02-23
_audit_creation_method              ToposPro
_chemical_formula_structural        LTA-PPT1
_chemical_formula_sum               'Lr5 O48 Si24'
_citation_special_details
;
Space Group: PM-3M->P m -3 m. File: LTA-PPT1.cif. 
;
_cell_length_a                      11.919
_cell_length_b                      11.919
_cell_length_c                      11.919
_cell_angle_alpha                   90
_cell_angle_beta                    90
_cell_angle_gamma                   90
_cell_volume                        1693.244
_cell_formula_units_Z               1
_symmetry_space_group_name_H-M      'P m -3 m'
_symmetry_Int_Tables_number         221
_refine_ls_R_factor_all             0
loop_
_symmetry_equiv_pos_site_id
_symmetry_equiv_pos_as_xyz
1 x,y,z
2 -x,-y,z
3 x,-y,-z
4 -x,y,-z
5 z,x,y
6 y,z,x
7 -z,-x,y
8 -y,z,-x
9 z,-x,-y
10 -y,-z,x
11 -z,x,-y
12 y,-z,-x
13 -y,-x,-z
14 y,x,-z
15 y,-x,z
16 -y,x,z
17 -x,-z,-y
18 -z,-y,-x
19 x,z,-y
20 -z,y,x
21 x,-z,y
22 z,y,-x
23 -x,z,y
24 z,-y,x
25 -x,-y,-z
26 x,y,-z
27 -x,y,z
28 x,-y,z
29 -z,-x,-y
30 -y,-z,-x
31 z,x,-y
32 y,-z,x
33 -z,x,y
34 y,z,-x
35 z,-x,y
36 -y,z,x
37 y,x,z
38 -y,-x,z
39 -y,x,-z
40 y,-x,-z
41 x,z,y
42 z,y,x
43 -x,-z,y
44 z,-y,-x
45 -x,z,-y
46 -z,-y,x
47 x,-z,-y
48 -z,y,-x
loop_
_atom_site_label
_atom_site_type_symbol
_atom_site_symmetry_multiplicity
_atom_site_fract_x
_atom_site_fract_y
_atom_site_fract_z
_atom_site_occupancy
O1 O 12 0.00000 0.21220 0.50000 1.0000
O2 O 24 0.11030 0.11030 0.33840 1.0000
O3 O 12 0.00000 0.29670 0.29670 1.0000
Si1 Si 24 0.00000 0.18230 0.36840 1.0000
Lr1 Lr 3 0.00000 0.00000 0.50000 1.0000
Lr2 Lr 1 0.00000 0.00000 0.00000 1.0000
Lr3 Lr 1 0.50000 0.50000 0.50000 1.0000
loop_
_topos_bond_atom_site_label_1
_topos_bond_atom_site_label_2
_topos_bond_site_symmetry_1
_topos_bond_site_symmetry_2
_topos_bond_distance
_topos_bond_type
_topos_bond_multiplicity
O1 Si1 1_0_0_0 1_0_0_0 1.6090 V 24
O2 Si1 1_0_0_0 1_0_0_0 1.6100 V 48
O3 Si1 1_0_0_0 1_0_0_0 1.6090 V 24
Lr3 Lr3 1_0_0_0 1_0_0_1 11.9190 V 3
#End of data_130-TOPOS_LTA-PPT1

data_131-TOPOS_LTF-PPT1
_audit_creation_date                2025-02-23
_audit_creation_method              ToposPro
_chemical_formula_structural        LTF-PPT1
_chemical_formula_sum               'Lr5 O36 Si18'
_citation_special_details
;
Space Group: P63/MMC->P 63/m m c. File: LTF-PPT1.cif. 
;
_cell_length_a                      31.167
_cell_length_b                      31.167
_cell_length_c                      7.601
_cell_angle_alpha                   90
_cell_angle_beta                    90
_cell_angle_gamma                   120
_cell_volume                        6394.276
_cell_formula_units_Z               6
_symmetry_space_group_name_H-M      'P 63/m m c'
_symmetry_Int_Tables_number         194
_refine_ls_R_factor_all             0
loop_
_symmetry_equiv_pos_site_id
_symmetry_equiv_pos_as_xyz
1 x,y,z
2 -x,-y,1/2+z
3 -y,x-y,z
4 -x+y,-x,z
5 x-y,x,1/2+z
6 y,-x+y,1/2+z
7 x-y,-y,-z
8 -x,-x+y,-z
9 y,x,-z
10 -y,-x,1/2-z
11 x,x-y,1/2-z
12 -x+y,y,1/2-z
13 -x,-y,-z
14 x,y,1/2-z
15 y,-x+y,-z
16 x-y,x,-z
17 -x+y,-x,1/2-z
18 -y,x-y,1/2-z
19 -x+y,y,z
20 x,x-y,z
21 -y,-x,z
22 y,x,1/2+z
23 -x,-x+y,1/2+z
24 x-y,-y,1/2+z
loop_
_atom_site_label
_atom_site_type_symbol
_atom_site_symmetry_multiplicity
_atom_site_fract_x
_atom_site_fract_y
_atom_site_fract_z
_atom_site_occupancy
O1 O 24 0.09410 0.48700 0.47850 1.0000
O2 O 24 0.07000 0.39690 0.57710 1.0000
O3 O 24 0.18450 0.51210 0.57700 1.0000
O4 O 24 0.06840 0.25380 0.57700 1.0000
O5 O 12 0.00000 0.41770 0.50000 1.0000
O6 O 12 0.00000 0.16260 0.50000 1.0000
O7 O 12 0.05620 0.41400 0.25000 1.0000
O8 O 12 0.16710 0.52660 0.25000 1.0000
O9 O 12 0.05600 0.22290 0.25000 1.0000
O10 O 6 0.24860 0.49720 0.75000 1.0000
O11 O 6 0.15230 0.30460 0.75000 1.0000
O12 O 12 0.15380 0.42880 0.75000 1.0000
O13 O 12 0.08640 0.33390 0.75000 1.0000
O14 O 12 0.16210 0.58105 0.50450 1.0000
O15 O 12 0.09455 0.18910 0.48120 1.0000
Si1 Si 24 0.05500 0.42900 0.45190 1.0000
Si2 Si 24 0.15200 0.52670 0.45250 1.0000
Si3 Si 24 0.05470 0.20700 0.45230 1.0000
Si4 Si 12 0.19280 0.48730 0.75000 1.0000
Si5 Si 12 0.09530 0.38940 0.75000 1.0000
Si6 Si 12 0.09400 0.28650 0.75000 1.0000
Lr1 Lr 12 0.01352 0.29736 0.25000 1.0000
Lr2 Lr 6 0.97119 0.48559 0.25000 1.0000
Lr3 Lr 6 0.19383 0.38765 0.25000 1.0000
Lr4 Lr 2 0.33333 0.66667 0.25000 1.0000
Lr5 Lr 2 0.00000 0.00000 0.25000 1.0000
Lr6 Lr 2 0.33333 0.66667 0.75000 1.0000
loop_
_topos_bond_atom_site_label_1
_topos_bond_atom_site_label_2
_topos_bond_site_symmetry_1
_topos_bond_site_symmetry_2
_topos_bond_distance
_topos_bond_type
_topos_bond_multiplicity
O1 Si1 1_0_0_0 1_0_0_0 1.6100 V 24
O1 Si2 1_0_0_0 1_0_0_0 1.6100 V 24
O2 Si5 1_0_0_0 1_0_0_0 1.6090 V 24
O2 Si1 1_0_0_0 1_0_0_0 1.6100 V 24
O3 Si2 1_0_0_0 1_0_0_0 1.6090 V 24
O3 Si4 1_0_0_0 1_0_0_0 1.6100 V 24
O4 Si3 1_0_0_0 1_0_0_0 1.6080 V 24
O4 Si6 1_0_0_0 1_0_0_0 1.6100 V 24
O5 Si1 1_0_0_0 1_0_0_0 1.6100 V 24
O6 Si3 1_0_0_0 1_0_0_0 1.6100 V 24
O7 Si1 1_0_0_0 1_0_0_0 1.6100 V 24
O8 Si2 1_0_0_0 1_0_0_0 1.6100 V 24
O9 Si3 1_0_0_0 1_0_0_0 1.6100 V 24
O10 Si4 1_0_0_0 1_0_0_0 1.6070 V 12
O11 Si6 1_0_0_0 1_0_0_0 1.6110 V 12
O12 Si4 1_0_0_0 1_0_0_0 1.6080 V 12
O12 Si5 1_0_0_0 1_0_0_0 1.6100 V 12
O13 Si6 1_0_0_0 1_0_0_0 1.6090 V 12
O13 Si5 1_0_0_0 1_0_0_0 1.6090 V 12
O14 Si2 1_0_0_0 1_0_0_0 1.6100 V 24
O15 Si3 1_0_0_0 1_0_0_0 1.6110 V 24
Lr1 Lr3 1_0_0_0 1_0_0_0 4.8670 V 12
Lr1 Lr1 1_0_0_0 8_0_0_0 3.8700 V 12
Lr2 Lr2 1_0_0_0 2_2_1_-1 4.1060 V 6
Lr3 Lr4 1_0_0_0 1_0_0_0 7.5310 V 6
Lr4 Lr6 1_0_0_0 1_0_0_0 3.8010 V 4
Lr5 Lr5 1_0_0_0 2_0_0_0 3.8010 V 2
#End of data_131-TOPOS_LTF-PPT1

data_132-TOPOS_LTJ-PPT1
_audit_creation_date                2025-02-23
_audit_creation_method              ToposPro
_chemical_formula_structural        LTJ-PPT1
_chemical_formula_sum               'Lr7 O8 Si4'
_citation_special_details
;
Space Group: P41212->P 41 21 2. File: LTJ-PPT1.cif. 
;
_cell_length_a                      9.25
_cell_length_b                      9.25
_cell_length_c                      10.083
_cell_angle_alpha                   90
_cell_angle_beta                    90
_cell_angle_gamma                   90
_cell_volume                        862.7267
_cell_formula_units_Z               4
_symmetry_space_group_name_H-M      'P 41 21 2'
_symmetry_Int_Tables_number         92
_refine_ls_R_factor_all             0
loop_
_symmetry_equiv_pos_site_id
_symmetry_equiv_pos_as_xyz
1 x,y,z
2 -x,-y,1/2+z
3 1/2+x,1/2-y,3/4-z
4 1/2-x,1/2+y,1/4-z
5 -y,-x,1/2-z
6 y,x,-z
7 1/2+y,1/2-x,3/4+z
8 1/2-y,1/2+x,1/4+z
loop_
_atom_site_label
_atom_site_type_symbol
_atom_site_symmetry_multiplicity
_atom_site_fract_x
_atom_site_fract_y
_atom_site_fract_z
_atom_site_occupancy
O1 O 8 0.26220 0.52080 0.17640 1.0000
O2 O 8 0.36670 0.25610 0.15900 1.0000
O3 O 8 0.43460 0.00720 0.26260 1.0000
O4 O 4 0.46000 0.46000 0.00000 1.0000
O5 O 4 0.53100 0.46900 0.25000 1.0000
Si1 Si 8 0.40440 0.42540 0.14800 1.0000
Si2 Si 8 0.38790 0.08690 0.12720 1.0000
Lr1 Lr 8 0.71297 0.36743 0.06920 1.0000
Lr2 Lr 8 0.27321 0.20539 0.98246 1.0000
Lr3 Lr 8 0.42077 0.75123 0.02336 1.0000
Lr4 Lr 4 0.71579 0.71579 0.00000 1.0000
loop_
_topos_bond_atom_site_label_1
_topos_bond_atom_site_label_2
_topos_bond_site_symmetry_1
_topos_bond_site_symmetry_2
_topos_bond_distance
_topos_bond_type
_topos_bond_multiplicity
O1 Si1 1_0_0_0 1_0_0_0 1.6100 V 8
O1 Si2 1_0_0_0 4_0_0_0 1.6100 V 8
O2 Si1 1_0_0_0 1_0_0_0 1.6080 V 8
O2 Si2 1_0_0_0 1_0_0_0 1.6100 V 8
O3 Si2 1_0_0_0 1_0_0_0 1.6110 V 8
O3 Si2 1_0_0_0 8_0_-1_0 1.6100 V 8
O4 Si1 1_0_0_0 1_0_0_0 1.6110 V 8
O5 Si1 1_0_0_0 1_0_0_0 1.6100 V 8
Lr1 Lr3 1_0_0_0 6_0_0_0 1.1130 V 8
Lr1 Lr4 1_0_0_0 4_1_-1_0 2.3930 V 8
Lr2 Lr3 1_0_0_0 7_-1_0_0 2.4180 V 8
Lr2 Lr2 1_0_0_0 6_0_0_2 0.9550 V 4
Lr3 Lr4 1_0_0_0 1_0_0_0 2.7590 V 8
#End of data_132-TOPOS_LTJ-PPT1

data_133-TOPOS_LTL-PPT1
_audit_creation_date                2025-02-23
_audit_creation_method              ToposPro
_chemical_formula_structural        LTL-PPT1
_chemical_formula_sum               'Lr11 O72 Si36'
_citation_special_details
;
Space Group: P6/MMM->P 6/m m m. File: LTL-PPT1.cif. 
;
_cell_length_a                      18.126
_cell_length_b                      18.126
_cell_length_c                      7.567
_cell_angle_alpha                   90
_cell_angle_beta                    90
_cell_angle_gamma                   120
_cell_volume                        2153.071
_cell_formula_units_Z               1
_symmetry_space_group_name_H-M      'P 6/m m m'
_symmetry_Int_Tables_number         191
_refine_ls_R_factor_all             0
loop_
_symmetry_equiv_pos_site_id
_symmetry_equiv_pos_as_xyz
1 x,y,z
2 -x,-y,z
3 -y,x-y,z
4 -x+y,-x,z
5 x-y,x,z
6 y,-x+y,z
7 x-y,-y,-z
8 -x,-x+y,-z
9 y,x,-z
10 -y,-x,-z
11 x,x-y,-z
12 -x+y,y,-z
13 -x,-y,-z
14 x,y,-z
15 y,-x+y,-z
16 x-y,x,-z
17 -x+y,-x,-z
18 -y,x-y,-z
19 -x+y,y,z
20 x,x-y,z
21 -y,-x,z
22 y,x,z
23 -x,-x+y,z
24 x-y,-y,z
loop_
_atom_site_label
_atom_site_type_symbol
_atom_site_symmetry_multiplicity
_atom_site_fract_x
_atom_site_fract_y
_atom_site_fract_z
_atom_site_occupancy
O1 O 24 0.10990 0.41620 0.32630 1.0000
O2 O 12 0.26445 0.52890 0.22310 1.0000
O3 O 12 0.14840 0.57420 0.26200 1.0000
O4 O 12 0.13650 0.47360 0.00000 1.0000
O5 O 6 0.00000 0.27970 0.50000 1.0000
O6 O 6 0.16280 0.32560 0.50000 1.0000
Si1 Si 24 0.16480 0.49820 0.20300 1.0000
Si2 Si 12 0.09590 0.35940 0.50000 1.0000
Lr1 Lr 3 0.00000 0.50000 0.00000 1.0000
Lr2 Lr 2 0.33333 0.66667 0.00000 1.0000
Lr3 Lr 1 0.00000 0.00000 0.00000 1.0000
Lr4 Lr 2 0.33333 0.66667 0.50000 1.0000
Lr5 Lr 3 0.00000 0.50000 0.50000 1.0000
loop_
_topos_bond_atom_site_label_1
_topos_bond_atom_site_label_2
_topos_bond_site_symmetry_1
_topos_bond_site_symmetry_2
_topos_bond_distance
_topos_bond_type
_topos_bond_multiplicity
O1 Si2 1_0_0_0 1_0_0_0 1.6100 V 24
O1 Si1 1_0_0_0 1_0_0_0 1.6100 V 24
O2 Si1 1_0_0_0 1_0_0_0 1.6090 V 24
O3 Si1 1_0_0_0 1_0_0_0 1.6110 V 24
O4 Si1 1_0_0_0 1_0_0_0 1.6100 V 24
O5 Si2 1_0_0_0 1_0_0_0 1.6120 V 12
O6 Si2 1_0_0_0 1_0_0_0 1.6090 V 12
Lr1 Lr5 1_0_0_0 1_0_0_0 3.7840 V 6
Lr1 Lr3 1_0_0_0 1_0_1_0 9.0630 V 6
Lr3 Lr3 1_0_0_0 1_0_0_-1 7.5670 V 1
#End of data_133-TOPOS_LTL-PPT1

data_134-TOPOS_LTN-PPT1
_audit_creation_date                2025-02-23
_audit_creation_method              ToposPro
_chemical_formula_structural        LTN-PPT1
_chemical_formula_sum               'Lr5 O96 Si48'
_citation_special_details
;
Space Group: FD-3M->F d -3 m. File: LTN-PPT1.cif. 
;
_cell_length_a                      35.622
_cell_length_b                      35.622
_cell_length_c                      35.622
_cell_angle_alpha                   90
_cell_angle_beta                    90
_cell_angle_gamma                   90
_cell_volume                        45201.72
_cell_formula_units_Z               16
_symmetry_space_group_name_H-M      'F d -3 m'
_symmetry_Int_Tables_number         227
_refine_ls_R_factor_all             0
loop_
_symmetry_equiv_pos_site_id
_symmetry_equiv_pos_as_xyz
1 x,y,z
2 -x,-y,z
3 x,-y,-z
4 -x,y,-z
5 z,x,y
6 y,z,x
7 -z,-x,y
8 -y,z,-x
9 z,-x,-y
10 -y,-z,x
11 -z,x,-y
12 y,-z,-x
13 1/4-y,1/4-x,1/4-z
14 1/4+y,1/4+x,1/4-z
15 1/4+y,1/4-x,1/4+z
16 1/4-y,1/4+x,1/4+z
17 1/4-x,1/4-z,1/4-y
18 1/4-z,1/4-y,1/4-x
19 1/4+x,1/4+z,1/4-y
20 1/4-z,1/4+y,1/4+x
21 1/4+x,1/4-z,1/4+y
22 1/4+z,1/4+y,1/4-x
23 1/4-x,1/4+z,1/4+y
24 1/4+z,1/4-y,1/4+x
25 1/4-x,1/4-y,1/4-z
26 1/4+x,1/4+y,1/4-z
27 1/4-x,1/4+y,1/4+z
28 1/4+x,1/4-y,1/4+z
29 1/4-z,1/4-x,1/4-y
30 1/4-y,1/4-z,1/4-x
31 1/4+z,1/4+x,1/4-y
32 1/4+y,1/4-z,1/4+x
33 1/4-z,1/4+x,1/4+y
34 1/4+y,1/4+z,1/4-x
35 1/4+z,1/4-x,1/4+y
36 1/4-y,1/4+z,1/4+x
37 y,x,z
38 -y,-x,z
39 -y,x,-z
40 y,-x,-z
41 x,z,y
42 z,y,x
43 -x,-z,y
44 z,-y,-x
45 -x,z,-y
46 -z,-y,x
47 x,-z,-y
48 -z,y,-x
49 x,1/2+y,1/2+z
50 1/2+x,y,1/2+z
51 1/2+x,1/2+y,z
52 -x,1/2-y,1/2+z
53 1/2-x,-y,1/2+z
54 1/2-x,1/2-y,z
55 x,1/2-y,1/2-z
56 1/2+x,-y,1/2-z
57 1/2+x,1/2-y,-z
58 -x,1/2+y,1/2-z
59 1/2-x,y,1/2-z
60 1/2-x,1/2+y,-z
61 z,1/2+x,1/2+y
62 1/2+z,x,1/2+y
63 1/2+z,1/2+x,y
64 y,1/2+z,1/2+x
65 1/2+y,z,1/2+x
66 1/2+y,1/2+z,x
67 -z,1/2-x,1/2+y
68 1/2-z,-x,1/2+y
69 1/2-z,1/2-x,y
70 -y,1/2+z,1/2-x
71 1/2-y,z,1/2-x
72 1/2-y,1/2+z,-x
73 z,1/2-x,1/2-y
74 1/2+z,-x,1/2-y
75 1/2+z,1/2-x,-y
76 -y,1/2-z,1/2+x
77 1/2-y,-z,1/2+x
78 1/2-y,1/2-z,x
79 -z,1/2+x,1/2-y
80 1/2-z,x,1/2-y
81 1/2-z,1/2+x,-y
82 y,1/2-z,1/2-x
83 1/2+y,-z,1/2-x
84 1/2+y,1/2-z,-x
85 1/4-y,3/4-x,3/4-z
86 3/4-y,1/4-x,3/4-z
87 3/4-y,3/4-x,1/4-z
88 1/4+y,3/4+x,3/4-z
89 3/4+y,1/4+x,3/4-z
90 3/4+y,3/4+x,1/4-z
91 1/4+y,3/4-x,3/4+z
92 3/4+y,1/4-x,3/4+z
93 3/4+y,3/4-x,1/4+z
94 1/4-y,3/4+x,3/4+z
95 3/4-y,1/4+x,3/4+z
96 3/4-y,3/4+x,1/4+z
97 1/4-x,3/4-z,3/4-y
98 3/4-x,1/4-z,3/4-y
99 3/4-x,3/4-z,1/4-y
100 1/4-z,3/4-y,3/4-x
101 3/4-z,1/4-y,3/4-x
102 3/4-z,3/4-y,1/4-x
103 1/4+x,3/4+z,3/4-y
104 3/4+x,1/4+z,3/4-y
105 3/4+x,3/4+z,1/4-y
106 1/4-z,3/4+y,3/4+x
107 3/4-z,1/4+y,3/4+x
108 3/4-z,3/4+y,1/4+x
109 1/4+x,3/4-z,3/4+y
110 3/4+x,1/4-z,3/4+y
111 3/4+x,3/4-z,1/4+y
112 1/4+z,3/4+y,3/4-x
113 3/4+z,1/4+y,3/4-x
114 3/4+z,3/4+y,1/4-x
115 1/4-x,3/4+z,3/4+y
116 3/4-x,1/4+z,3/4+y
117 3/4-x,3/4+z,1/4+y
118 1/4+z,3/4-y,3/4+x
119 3/4+z,1/4-y,3/4+x
120 3/4+z,3/4-y,1/4+x
121 1/4-x,3/4-y,3/4-z
122 3/4-x,1/4-y,3/4-z
123 3/4-x,3/4-y,1/4-z
124 1/4+x,3/4+y,3/4-z
125 3/4+x,1/4+y,3/4-z
126 3/4+x,3/4+y,1/4-z
127 1/4-x,3/4+y,3/4+z
128 3/4-x,1/4+y,3/4+z
129 3/4-x,3/4+y,1/4+z
130 1/4+x,3/4-y,3/4+z
131 3/4+x,1/4-y,3/4+z
132 3/4+x,3/4-y,1/4+z
133 1/4-z,3/4-x,3/4-y
134 3/4-z,1/4-x,3/4-y
135 3/4-z,3/4-x,1/4-y
136 1/4-y,3/4-z,3/4-x
137 3/4-y,1/4-z,3/4-x
138 3/4-y,3/4-z,1/4-x
139 1/4+z,3/4+x,3/4-y
140 3/4+z,1/4+x,3/4-y
141 3/4+z,3/4+x,1/4-y
142 1/4+y,3/4-z,3/4+x
143 3/4+y,1/4-z,3/4+x
144 3/4+y,3/4-z,1/4+x
145 1/4-z,3/4+x,3/4+y
146 3/4-z,1/4+x,3/4+y
147 3/4-z,3/4+x,1/4+y
148 1/4+y,3/4+z,3/4-x
149 3/4+y,1/4+z,3/4-x
150 3/4+y,3/4+z,1/4-x
151 1/4+z,3/4-x,3/4+y
152 3/4+z,1/4-x,3/4+y
153 3/4+z,3/4-x,1/4+y
154 1/4-y,3/4+z,3/4+x
155 3/4-y,1/4+z,3/4+x
156 3/4-y,3/4+z,1/4+x
157 y,1/2+x,1/2+z
158 1/2+y,x,1/2+z
159 1/2+y,1/2+x,z
160 -y,1/2-x,1/2+z
161 1/2-y,-x,1/2+z
162 1/2-y,1/2-x,z
163 -y,1/2+x,1/2-z
164 1/2-y,x,1/2-z
165 1/2-y,1/2+x,-z
166 y,1/2-x,1/2-z
167 1/2+y,-x,1/2-z
168 1/2+y,1/2-x,-z
169 x,1/2+z,1/2+y
170 1/2+x,z,1/2+y
171 1/2+x,1/2+z,y
172 z,1/2+y,1/2+x
173 1/2+z,y,1/2+x
174 1/2+z,1/2+y,x
175 -x,1/2-z,1/2+y
176 1/2-x,-z,1/2+y
177 1/2-x,1/2-z,y
178 z,1/2-y,1/2-x
179 1/2+z,-y,1/2-x
180 1/2+z,1/2-y,-x
181 -x,1/2+z,1/2-y
182 1/2-x,z,1/2-y
183 1/2-x,1/2+z,-y
184 -z,1/2-y,1/2+x
185 1/2-z,-y,1/2+x
186 1/2-z,1/2-y,x
187 x,1/2-z,1/2-y
188 1/2+x,-z,1/2-y
189 1/2+x,1/2-z,-y
190 -z,1/2+y,1/2-x
191 1/2-z,y,1/2-x
192 1/2-z,1/2+y,-x
loop_
_atom_site_label
_atom_site_type_symbol
_atom_site_symmetry_multiplicity
_atom_site_fract_x
_atom_site_fract_y
_atom_site_fract_z
_atom_site_occupancy
O1 O 192 0.33680 0.73830 0.40810 1.0000
O2 O 192 0.45200 0.78950 0.36680 1.0000
O3 O 192 0.40540 0.83560 0.49490 1.0000
O4 O 96 0.33790 0.76100 0.33790 1.0000
O5 O 96 0.41010 0.74700 0.41010 1.0000
O6 O 96 0.42450 0.82620 0.42450 1.0000
O7 O 96 0.28480 0.71520 0.36100 1.0000
O8 O 96 0.28540 0.78540 0.38370 1.0000
O9 O 96 0.36240 0.86240 0.44120 1.0000
O10 O 96 0.46800 0.71800 0.37500 1.0000
O11 O 96 0.55455 0.80455 0.37500 1.0000
O12 O 96 0.56010 0.83930 0.43990 1.0000
O13 O 96 0.54870 0.87800 0.37800 1.0000
Si1 Si 192 0.31120 0.75000 0.37270 1.0000
Si2 Si 192 0.43450 0.74810 0.37210 1.0000
Si3 Si 192 0.38970 0.82850 0.45320 1.0000
Si4 Si 192 0.53960 0.83940 0.39960 1.0000
Lr1 Lr 8 0.25000 0.75000 0.25000 1.0000
Lr2 Lr 8 0.25000 0.75000 0.75000 1.0000
Lr3 Lr 32 0.35111 0.85111 0.35111 1.0000
Lr4 Lr 16 0.37500 0.62500 0.37500 1.0000
Lr5 Lr 16 0.62500 0.87500 0.37500 1.0000
loop_
_topos_bond_atom_site_label_1
_topos_bond_atom_site_label_2
_topos_bond_site_symmetry_1
_topos_bond_site_symmetry_2
_topos_bond_distance
_topos_bond_type
_topos_bond_multiplicity
O1 Si1 1_0_0_0 1_0_0_0 1.6110 V 192
O1 Si2 1_0_0_0 42_0_0_0 1.6090 V 192
O2 Si2 1_0_0_0 1_0_0_0 1.6120 V 192
O2 Si3 1_0_0_0 42_0_0_0 1.6120 V 192
O3 Si3 1_0_0_0 1_0_0_0 1.6070 V 192
O3 Si4 1_0_0_0 42_0_0_0 1.6110 V 192
O4 Si1 1_0_0_0 1_0_0_0 1.6110 V 192
O5 Si2 1_0_0_0 1_0_0_0 1.6090 V 192
O6 Si3 1_0_0_0 1_0_0_0 1.6090 V 192
O7 Si1 1_0_0_0 1_0_0_0 1.6110 V 192
O8 Si1 1_0_0_0 1_0_0_0 1.6090 V 192
O9 Si3 1_0_0_0 1_0_0_0 1.6080 V 192
O10 Si2 1_0_0_0 1_0_0_0 1.6080 V 192
O11 Si4 1_0_0_0 1_0_0_0 1.6100 V 192
O12 Si4 1_0_0_0 1_0_0_0 1.6110 V 192
O13 Si4 1_0_0_0 1_0_0_0 1.6090 V 192
#End of data_134-TOPOS_LTN-PPT1

data_135-TOPOS_MAR-PPT1
_audit_creation_date                2025-02-23
_audit_creation_method              ToposPro
_chemical_formula_structural        MAR-PPT1
_chemical_formula_sum               'Lr1 O12 Si6'
_citation_special_details
;
Space Group: P63/MMC->P 63/m m c. File: MAR-PPT1.cif. 
;
_cell_length_a                      12.392
_cell_length_b                      12.392
_cell_length_c                      30.469
_cell_angle_alpha                   90
_cell_angle_beta                    90
_cell_angle_gamma                   120
_cell_volume                        4052.021
_cell_formula_units_Z               12
_symmetry_space_group_name_H-M      'P 63/m m c'
_symmetry_Int_Tables_number         194
_refine_ls_R_factor_all             0
loop_
_symmetry_equiv_pos_site_id
_symmetry_equiv_pos_as_xyz
1 x,y,z
2 -x,-y,1/2+z
3 -y,x-y,z
4 -x+y,-x,z
5 x-y,x,1/2+z
6 y,-x+y,1/2+z
7 x-y,-y,-z
8 -x,-x+y,-z
9 y,x,-z
10 -y,-x,1/2-z
11 x,x-y,1/2-z
12 -x+y,y,1/2-z
13 -x,-y,-z
14 x,y,1/2-z
15 y,-x+y,-z
16 x-y,x,-z
17 -x+y,-x,1/2-z
18 -y,x-y,1/2-z
19 -x+y,y,z
20 x,x-y,z
21 -y,-x,z
22 y,x,1/2+z
23 -x,-x+y,1/2+z
24 x-y,-y,1/2+z
loop_
_atom_site_label
_atom_site_type_symbol
_atom_site_symmetry_multiplicity
_atom_site_fract_x
_atom_site_fract_y
_atom_site_fract_z
_atom_site_occupancy
O1 O 24 0.02450 0.65260 0.12270 1.0000
O2 O 24 0.68700 0.66790 0.20670 1.0000
O3 O 24 0.96130 0.65590 0.04080 1.0000
O4 O 12 0.11630 0.88370 0.01360 1.0000
O5 O 12 0.45250 0.54750 0.18270 1.0000
O6 O 12 0.88320 0.44160 0.08090 1.0000
O7 O 12 0.79295 0.58590 0.10300 1.0000
O8 O 12 0.58130 0.79065 0.17650 1.0000
O9 O 6 0.46950 0.93900 0.75000 1.0000
O10 O 6 0.53870 0.76935 0.75000 1.0000
Si1 Si 24 0.91560 0.58370 0.08690 1.0000
Si2 Si 24 0.58760 0.66470 0.17180 1.0000
Si3 Si 12 0.91630 0.58640 0.25000 1.0000
Si4 Si 12 0.24940 0.00000 0.00000 1.0000
Lr1 Lr 4 0.66667 0.33333 0.95705 1.0000
Lr2 Lr 4 0.66667 0.33333 0.16957 1.0000
Lr3 Lr 2 0.00000 0.00000 0.25000 1.0000
Lr4 Lr 2 0.33333 0.66667 0.25000 1.0000
loop_
_topos_bond_atom_site_label_1
_topos_bond_atom_site_label_2
_topos_bond_site_symmetry_1
_topos_bond_site_symmetry_2
_topos_bond_distance
_topos_bond_type
_topos_bond_multiplicity
O1 Si2 1_0_0_0 19_0_0_0 1.6090 V 24
O1 Si1 1_0_0_0 1_-1_0_0 1.6090 V 24
O2 Si2 1_0_0_0 1_0_0_0 1.6130 V 24
O2 Si3 1_0_0_0 12_1_0_0 1.6100 V 24
O3 Si1 1_0_0_0 1_0_0_0 1.6090 V 24
O3 Si4 1_0_0_0 15_1_1_0 1.6090 V 24
O4 Si4 1_0_0_0 1_0_1_0 1.6100 V 24
O5 Si2 1_0_0_0 1_0_0_0 1.6100 V 24
O6 Si1 1_0_0_0 1_0_0_0 1.6090 V 24
O7 Si1 1_0_0_0 1_0_0_0 1.6100 V 24
O8 Si2 1_0_0_0 1_0_0_0 1.6080 V 24
O9 Si3 1_0_0_0 9_0_0_1 1.6080 V 12
O10 Si3 1_0_0_0 6_0_1_0 1.6090 V 12
#End of data_135-TOPOS_MAR-PPT1

data_136-TOPOS_MAZ-PPT1
_audit_creation_date                2025-02-23
_audit_creation_method              ToposPro
_chemical_formula_structural        MAZ-PPT1
_chemical_formula_sum               'Lr5 O36 Si18'
_citation_special_details
;
Space Group: P63/MMC->P 63/m m c. File: MAZ-PPT1.cif. 
;
_cell_length_a                      18.102
_cell_length_b                      18.102
_cell_length_c                      7.618
_cell_angle_alpha                   90
_cell_angle_beta                    90
_cell_angle_gamma                   120
_cell_volume                        2161.846
_cell_formula_units_Z               2
_symmetry_space_group_name_H-M      'P 63/m m c'
_symmetry_Int_Tables_number         194
_refine_ls_R_factor_all             0
loop_
_symmetry_equiv_pos_site_id
_symmetry_equiv_pos_as_xyz
1 x,y,z
2 -x,-y,1/2+z
3 -y,x-y,z
4 -x+y,-x,z
5 x-y,x,1/2+z
6 y,-x+y,1/2+z
7 x-y,-y,-z
8 -x,-x+y,-z
9 y,x,-z
10 -y,-x,1/2-z
11 x,x-y,1/2-z
12 -x+y,y,1/2-z
13 -x,-y,-z
14 x,y,1/2-z
15 y,-x+y,-z
16 x-y,x,-z
17 -x+y,-x,1/2-z
18 -y,x-y,1/2-z
19 -x+y,y,z
20 x,x-y,z
21 -y,-x,z
22 y,x,1/2+z
23 -x,-x+y,1/2+z
24 x-y,-y,1/2+z
loop_
_atom_site_label
_atom_site_type_symbol
_atom_site_symmetry_multiplicity
_atom_site_fract_x
_atom_site_fract_y
_atom_site_fract_z
_atom_site_occupancy
O1 O 24 0.11930 0.43650 0.92250 1.0000
O2 O 12 0.00000 0.28010 0.00000 1.0000
O3 O 12 0.16195 0.32390 0.02270 1.0000
O4 O 12 0.09590 0.38390 0.25000 1.0000
O5 O 6 0.52630 0.26315 0.25000 1.0000
O6 O 6 0.57365 0.14730 0.25000 1.0000
Si1 Si 24 0.09430 0.35610 0.04870 1.0000
Si2 Si 12 0.49340 0.16240 0.25000 1.0000
Lr1 Lr 2 0.33333 0.66667 0.25000 1.0000
Lr2 Lr 2 0.00000 0.00000 0.25000 1.0000
Lr3 Lr 6 0.02320 0.51160 0.25000 1.0000
loop_
_topos_bond_atom_site_label_1
_topos_bond_atom_site_label_2
_topos_bond_site_symmetry_1
_topos_bond_site_symmetry_2
_topos_bond_distance
_topos_bond_type
_topos_bond_multiplicity
O1 Si1 1_0_0_0 1_0_0_1 1.6090 V 24
O1 Si2 1_0_0_0 9_0_0_1 1.6100 V 24
O2 Si1 1_0_0_0 1_0_0_0 1.6110 V 24
O3 Si1 1_0_0_0 1_0_0_0 1.6100 V 24
O4 Si1 1_0_0_0 1_0_0_0 1.6100 V 24
O5 Si2 1_0_0_0 1_0_0_0 1.6110 V 12
O6 Si2 1_0_0_0 1_0_0_0 1.6070 V 12
Lr1 Lr3 1_0_0_0 1_0_0_0 4.8620 V 6
Lr2 Lr2 1_0_0_0 2_0_0_0 3.8090 V 2
Lr3 Lr3 1_0_0_0 2_0_1_0 3.8780 V 6
#End of data_136-TOPOS_MAZ-PPT1

data_137-TOPOS_MEI-PPT1
_audit_creation_date                2025-02-23
_audit_creation_method              ToposPro
_chemical_formula_structural        MEI-PPT1
_chemical_formula_sum               'Lr3 O34 Si17'
_citation_special_details
;
Space Group: P63/M->P 63/m. File: MEI-PPT1.cif. 
;
_cell_length_a                      13.114
_cell_length_b                      13.114
_cell_length_c                      15.563
_cell_angle_alpha                   90
_cell_angle_beta                    90
_cell_angle_gamma                   120
_cell_volume                        2317.898
_cell_formula_units_Z               2
_symmetry_space_group_name_H-M      'P 63/m'
_symmetry_Int_Tables_number         176
_refine_ls_R_factor_all             0
loop_
_symmetry_equiv_pos_site_id
_symmetry_equiv_pos_as_xyz
1 x,y,z
2 -x,-y,1/2+z
3 -y,x-y,z
4 -x+y,-x,z
5 x-y,x,1/2+z
6 y,-x+y,1/2+z
7 -x,-y,-z
8 x,y,1/2-z
9 y,-x+y,-z
10 x-y,x,-z
11 -x+y,-x,1/2-z
12 -y,x-y,1/2-z
loop_
_atom_site_label
_atom_site_type_symbol
_atom_site_symmetry_multiplicity
_atom_site_fract_x
_atom_site_fract_y
_atom_site_fract_z
_atom_site_occupancy
O1 O 12 0.80300 0.22690 0.50390 1.0000
O2 O 12 0.64960 0.21010 0.38810 1.0000
O3 O 12 0.64610 0.01920 0.44440 1.0000
O4 O 12 0.58000 0.13580 0.54580 1.0000
O5 O 12 0.44980 0.15630 0.66550 1.0000
O6 O 6 0.56450 0.35630 0.75000 1.0000
O7 O 2 0.66667 0.33333 0.25000 1.0000
Si1 Si 12 0.66960 0.14790 0.47050 1.0000
Si2 Si 12 0.45190 0.11740 0.56770 1.0000
Si3 Si 6 0.52650 0.21890 0.75000 1.0000
Si4 Si 4 0.66667 0.33333 0.35330 1.0000
Lr1 Lr 4 0.66667 0.33333 0.92821 1.0000
Lr2 Lr 2 0.00000 0.00000 0.75000 1.0000
loop_
_topos_bond_atom_site_label_1
_topos_bond_atom_site_label_2
_topos_bond_site_symmetry_1
_topos_bond_site_symmetry_2
_topos_bond_distance
_topos_bond_type
_topos_bond_multiplicity
O1 Si1 1_0_0_0 1_0_0_0 1.6100 V 12
O1 Si2 1_0_0_0 3_1_0_0 1.6100 V 12
O2 Si1 1_0_0_0 1_0_0_0 1.6100 V 12
O2 Si4 1_0_0_0 1_0_0_0 1.6100 V 12
O3 Si1 1_0_0_0 1_0_0_0 1.6090 V 12
O3 Si2 1_0_0_0 7_1_0_1 1.6110 V 12
O4 Si2 1_0_0_0 1_0_0_0 1.6100 V 12
O4 Si1 1_0_0_0 1_0_0_0 1.6100 V 12
O5 Si3 1_0_0_0 1_0_0_0 1.6090 V 12
O5 Si2 1_0_0_0 1_0_0_0 1.6100 V 12
O6 Si3 1_0_0_0 1_0_0_0 1.6120 V 6
O6 Si3 1_0_0_0 4_1_1_0 1.6120 V 6
O7 Si4 1_0_0_0 1_0_0_0 1.6080 V 4
Lr2 Lr2 1_0_0_0 2_0_0_0 7.7810 V 2
Lr2 Lr2 1_0_0_0 1_0_1_0 13.1140 V 6
#End of data_137-TOPOS_MEI-PPT1

data_138-TOPOS_MEL-PPT1
_audit_creation_date                2025-02-23
_audit_creation_method              ToposPro
_chemical_formula_structural        MEL-PPT1
_chemical_formula_sum               'Lr7 O24 Si12'
_citation_special_details
;
Space Group: I-4M2->I -4 m 2. File: MEL-PPT1.cif. 
;
_cell_length_a                      20.27
_cell_length_b                      20.27
_cell_length_c                      13.459
_cell_angle_alpha                   90
_cell_angle_beta                    90
_cell_angle_gamma                   90
_cell_volume                        5529.938
_cell_formula_units_Z               8
_symmetry_space_group_name_H-M      'I -4 m 2'
_symmetry_Int_Tables_number         119
_refine_ls_R_factor_all             0
loop_
_symmetry_equiv_pos_site_id
_symmetry_equiv_pos_as_xyz
1 x,y,z
2 -x,-y,z
3 -y,-x,-z
4 y,x,-z
5 -x,y,z
6 x,-y,z
7 -y,x,-z
8 y,-x,-z
9 1/2+x,1/2+y,1/2+z
10 1/2-x,1/2-y,1/2+z
11 1/2-y,1/2-x,1/2-z
12 1/2+y,1/2+x,1/2-z
13 1/2-x,1/2+y,1/2+z
14 1/2+x,1/2-y,1/2+z
15 1/2-y,1/2+x,1/2-z
16 1/2+y,1/2-x,1/2-z
loop_
_atom_site_label
_atom_site_type_symbol
_atom_site_symmetry_multiplicity
_atom_site_fract_x
_atom_site_fract_y
_atom_site_fract_z
_atom_site_occupancy
O1 O 16 0.09500 0.12200 0.09350 1.0000
O2 O 16 0.09760 0.25160 0.09620 1.0000
O3 O 16 0.08880 0.18560 0.26340 1.0000
O4 O 16 0.19940 0.18400 0.16150 1.0000
O5 O 16 0.12070 0.20020 0.45140 1.0000
O6 O 16 0.09830 0.30440 0.34050 1.0000
O7 O 16 0.30010 0.12190 0.08120 1.0000
O8 O 16 0.29760 0.25170 0.08460 1.0000
O9 O 16 0.37860 0.08470 0.93620 1.0000
O10 O 8 0.00000 0.22670 0.39190 1.0000
O11 O 8 0.00000 0.38180 0.39120 1.0000
O12 O 8 0.00000 0.08760 0.97100 1.0000
O13 O 8 0.31480 0.18520 0.25000 1.0000
O14 O 8 0.08180 0.41820 0.25000 1.0000
O15 O 8 0.29520 0.00000 0.01450 1.0000
Si1 Si 16 0.12030 0.18580 0.15360 1.0000
Si2 Si 16 0.07680 0.22920 0.36180 1.0000
Si3 Si 16 0.27790 0.18570 0.14390 1.0000
Si4 Si 16 0.30630 0.07600 0.98400 1.0000
Si5 Si 16 0.07560 0.37990 0.35440 1.0000
Si6 Si 8 0.07620 0.07620 0.00000 1.0000
Si7 Si 8 0.19300 0.19300 0.50000 1.0000
Lr1 Lr 8 0.00000 0.30351 0.60231 1.0000
Lr2 Lr 8 0.00000 0.30512 0.20628 1.0000
Lr3 Lr 8 0.00000 0.19938 0.13285 1.0000
Lr4 Lr 8 0.19625 0.30375 0.25000 1.0000
Lr5 Lr 8 0.19776 0.00000 0.22044 1.0000
Lr6 Lr 8 0.19190 0.19190 0.00000 1.0000
Lr7 Lr 2 0.00000 0.00000 0.50000 1.0000
Lr8 Lr 4 0.50000 0.00000 0.82800 1.0000
Lr9 Lr 2 0.50000 0.00000 0.25000 1.0000
loop_
_topos_bond_atom_site_label_1
_topos_bond_atom_site_label_2
_topos_bond_site_symmetry_1
_topos_bond_site_symmetry_2
_topos_bond_distance
_topos_bond_type
_topos_bond_multiplicity
O1 Si1 1_0_0_0 1_0_0_0 1.6090 V 16
O1 Si6 1_0_0_0 1_0_0_0 1.6100 V 16
O2 Si1 1_0_0_0 1_0_0_0 1.6090 V 16
O2 Si4 1_0_0_0 4_0_0_1 1.6080 V 16
O3 Si1 1_0_0_0 1_0_0_0 1.6100 V 16
O3 Si2 1_0_0_0 1_0_0_0 1.6110 V 16
O4 Si1 1_0_0_0 1_0_0_0 1.6070 V 16
O4 Si3 1_0_0_0 1_0_0_0 1.6090 V 16
O5 Si2 1_0_0_0 1_0_0_0 1.6100 V 16
O5 Si7 1_0_0_0 1_0_0_0 1.6110 V 16
O6 Si5 1_0_0_0 1_0_0_0 1.6090 V 16
O6 Si2 1_0_0_0 1_0_0_0 1.6110 V 16
O7 Si3 1_0_0_0 1_0_0_0 1.6080 V 16
O7 Si4 1_0_0_0 1_0_0_-1 1.6100 V 16
O8 Si3 1_0_0_0 1_0_0_0 1.6080 V 16
O8 Si7 1_0_0_0 10_0_0_-1 1.6090 V 16
O9 Si4 1_0_0_0 1_0_0_0 1.6100 V 16
O9 Si5 1_0_0_0 10_0_0_0 1.6090 V 16
O10 Si2 1_0_0_0 1_0_0_0 1.6090 V 16
O11 Si5 1_0_0_0 1_0_0_0 1.6110 V 16
O12 Si6 1_0_0_0 1_0_0_1 1.6100 V 16
O13 Si3 1_0_0_0 1_0_0_0 1.6120 V 16
O14 Si5 1_0_0_0 1_0_0_0 1.6100 V 16
O15 Si4 1_0_0_0 1_0_0_-1 1.6100 V 16
Lr1 Lr5 1_0_0_0 4_0_0_1 3.2070 V 8
Lr1 Lr9 1_0_0_0 3_0_1_1 4.4510 V 8
Lr2 Lr3 1_0_0_0 1_0_0_0 2.3600 V 8
Lr5 Lr7 1_0_0_0 1_0_0_0 5.4980 V 8
Lr8 Lr8 1_0_0_0 11_0_0_1 2.1000 V 2
Lr8 Lr9 1_0_0_0 1_0_0_1 5.6800 V 4
#End of data_138-TOPOS_MEL-PPT1

data_139-TOPOS_MEP-PPT1
_audit_creation_date                2025-02-23
_audit_creation_method              ToposPro
_chemical_formula_structural        MEP-PPT1
_chemical_formula_sum               'Lr4 O46 Si23'
_citation_special_details
;
Space Group: PM-3N->P m -3 n. File: MEP-PPT1.cif. 
;
_cell_length_a                      13.705
_cell_length_b                      13.705
_cell_length_c                      13.705
_cell_angle_alpha                   90
_cell_angle_beta                    90
_cell_angle_gamma                   90
_cell_volume                        2574.169
_cell_formula_units_Z               2
_symmetry_space_group_name_H-M      'P m -3 n'
_symmetry_Int_Tables_number         223
_refine_ls_R_factor_all             0
loop_
_symmetry_equiv_pos_site_id
_symmetry_equiv_pos_as_xyz
1 x,y,z
2 -x,-y,z
3 x,-y,-z
4 -x,y,-z
5 z,x,y
6 y,z,x
7 -z,-x,y
8 -y,z,-x
9 z,-x,-y
10 -y,-z,x
11 -z,x,-y
12 y,-z,-x
13 1/2-y,1/2-x,1/2-z
14 1/2+y,1/2+x,1/2-z
15 1/2+y,1/2-x,1/2+z
16 1/2-y,1/2+x,1/2+z
17 1/2-x,1/2-z,1/2-y
18 1/2-z,1/2-y,1/2-x
19 1/2+x,1/2+z,1/2-y
20 1/2-z,1/2+y,1/2+x
21 1/2+x,1/2-z,1/2+y
22 1/2+z,1/2+y,1/2-x
23 1/2-x,1/2+z,1/2+y
24 1/2+z,1/2-y,1/2+x
25 -x,-y,-z
26 x,y,-z
27 -x,y,z
28 x,-y,z
29 -z,-x,-y
30 -y,-z,-x
31 z,x,-y
32 y,-z,x
33 -z,x,y
34 y,z,-x
35 z,-x,y
36 -y,z,x
37 1/2+y,1/2+x,1/2+z
38 1/2-y,1/2-x,1/2+z
39 1/2-y,1/2+x,1/2-z
40 1/2+y,1/2-x,1/2-z
41 1/2+x,1/2+z,1/2+y
42 1/2+z,1/2+y,1/2+x
43 1/2-x,1/2-z,1/2+y
44 1/2+z,1/2-y,1/2-x
45 1/2-x,1/2+z,1/2-y
46 1/2-z,1/2-y,1/2+x
47 1/2+x,1/2-z,1/2-y
48 1/2-z,1/2+y,1/2-x
loop_
_atom_site_label
_atom_site_type_symbol
_atom_site_symmetry_multiplicity
_atom_site_fract_x
_atom_site_fract_y
_atom_site_fract_z
_atom_site_occupancy
O1 O 48 0.09620 0.24620 0.13440 1.0000
O2 O 12 0.00000 0.34390 0.00000 1.0000
O3 O 24 0.00000 0.40420 0.18220 1.0000
O4 O 8 0.25000 0.25000 0.25000 1.0000
Si1 Si 24 0.00000 0.30980 0.11240 1.0000
Si2 Si 16 0.18230 0.18230 0.18230 1.0000
Si3 Si 6 0.25000 0.00000 0.50000 1.0000
Lr1 Lr 6 0.75000 0.50000 0.00000 1.0000
Lr2 Lr 2 0.00000 0.00000 0.00000 1.0000
loop_
_topos_bond_atom_site_label_1
_topos_bond_atom_site_label_2
_topos_bond_site_symmetry_1
_topos_bond_site_symmetry_2
_topos_bond_distance
_topos_bond_type
_topos_bond_multiplicity
O1 Si1 1_0_0_0 1_0_0_0 1.6090 V 48
O1 Si2 1_0_0_0 1_0_0_0 1.6090 V 48
O2 Si1 1_0_0_0 1_0_0_0 1.6100 V 24
O3 Si1 1_0_0_0 1_0_0_0 1.6090 V 24
O3 Si3 1_0_0_0 6_0_0_0 1.6080 V 24
O4 Si2 1_0_0_0 1_0_0_0 1.6070 V 16
#End of data_139-TOPOS_MEP-PPT1

data_140-TOPOS_MER-PPT1
_audit_creation_date                2025-02-23
_audit_creation_method              ToposPro
_chemical_formula_structural        MER-PPT1
_chemical_formula_sum               'Lr1 O8 Si4'
_citation_special_details
;
Space Group: I4/MMM->I 4/m m m. File: MER-PPT1.cif. 
;
_cell_length_a                      14.012
_cell_length_b                      14.012
_cell_length_c                      9.954
_cell_angle_alpha                   90
_cell_angle_beta                    90
_cell_angle_gamma                   90
_cell_volume                        1954.33
_cell_formula_units_Z               8
_symmetry_space_group_name_H-M      'I 4/m m m'
_symmetry_Int_Tables_number         139
_refine_ls_R_factor_all             0
loop_
_symmetry_equiv_pos_site_id
_symmetry_equiv_pos_as_xyz
1 x,y,z
2 -x,-y,z
3 x,-y,-z
4 -x,y,-z
5 -y,-x,-z
6 y,x,-z
7 y,-x,z
8 -y,x,z
9 -x,-y,-z
10 x,y,-z
11 -x,y,z
12 x,-y,z
13 y,x,z
14 -y,-x,z
15 -y,x,-z
16 y,-x,-z
17 1/2+x,1/2+y,1/2+z
18 1/2-x,1/2-y,1/2+z
19 1/2+x,1/2-y,1/2-z
20 1/2-x,1/2+y,1/2-z
21 1/2-y,1/2-x,1/2-z
22 1/2+y,1/2+x,1/2-z
23 1/2+y,1/2-x,1/2+z
24 1/2-y,1/2+x,1/2+z
25 1/2-x,1/2-y,1/2-z
26 1/2+x,1/2+y,1/2-z
27 1/2-x,1/2+y,1/2+z
28 1/2+x,1/2-y,1/2+z
29 1/2+y,1/2+x,1/2+z
30 1/2-y,1/2-x,1/2+z
31 1/2-y,1/2+x,1/2-z
32 1/2+y,1/2-x,1/2-z
loop_
_atom_site_label
_atom_site_type_symbol
_atom_site_symmetry_multiplicity
_atom_site_fract_x
_atom_site_fract_y
_atom_site_fract_z
_atom_site_occupancy
O1 O 16 0.17260 0.17260 0.18400 1.0000
O2 O 16 0.12230 0.29760 0.00000 1.0000
O3 O 16 0.00000 0.24570 0.18660 1.0000
O4 O 16 0.14750 0.35250 0.25000 1.0000
Si1 Si 32 0.11060 0.26710 0.15500 1.0000
Lr1 Lr 2 0.50000 0.50000 0.00000 1.0000
Lr2 Lr 4 0.00000 0.50000 0.00000 1.0000
Lr3 Lr 2 0.00000 0.00000 0.00000 1.0000
loop_
_topos_bond_atom_site_label_1
_topos_bond_atom_site_label_2
_topos_bond_site_symmetry_1
_topos_bond_site_symmetry_2
_topos_bond_distance
_topos_bond_type
_topos_bond_multiplicity
O1 Si1 1_0_0_0 1_0_0_0 1.6100 V 32
O2 Si1 1_0_0_0 1_0_0_0 1.6090 V 32
O3 Si1 1_0_0_0 1_0_0_0 1.6100 V 32
O4 Si1 1_0_0_0 1_0_0_0 1.6100 V 32
Lr1 Lr2 1_0_0_0 1_0_0_0 7.0060 V 8
Lr1 Lr3 1_0_0_0 17_0_0_0 4.9770 V 4
Lr2 Lr2 1_0_0_0 21_0_0_-1 4.9770 V 4
#End of data_140-TOPOS_MER-PPT1

data_141-TOPOS_MFI-PPT1
_audit_creation_date                2025-02-23
_audit_creation_method              ToposPro
_chemical_formula_structural        MFI-PPT1
_chemical_formula_sum               'Lr5 O16 Si8'
_citation_special_details
;
Space Group: PNMA->P n m a. File: MFI-PPT1.cif. 
;
_cell_length_a                      20.09
_cell_length_b                      19.738
_cell_length_c                      13.142
_cell_angle_alpha                   90
_cell_angle_beta                    90
_cell_angle_gamma                   90
_cell_volume                        5211.282
_cell_formula_units_Z               12
_symmetry_space_group_name_H-M      'P n m a'
_symmetry_Int_Tables_number         62
_refine_ls_R_factor_all             0
loop_
_symmetry_equiv_pos_site_id
_symmetry_equiv_pos_as_xyz
1 x,y,z
2 1/2-x,-y,1/2+z
3 1/2+x,1/2-y,1/2-z
4 -x,1/2+y,-z
5 -x,-y,-z
6 1/2+x,y,1/2-z
7 1/2-x,1/2+y,1/2+z
8 x,1/2-y,z
loop_
_atom_site_label
_atom_site_type_symbol
_atom_site_symmetry_multiplicity
_atom_site_fract_x
_atom_site_fract_y
_atom_site_fract_z
_atom_site_occupancy
O1 O 8 0.00120 0.06990 0.70180 1.0000
O2 O 8 0.88750 0.07430 0.80080 1.0000
O3 O 8 0.89950 0.13660 0.62510 1.0000
O4 O 8 0.89720 0.00340 0.63260 1.0000
O5 O 8 0.82900 0.03850 0.97220 1.0000
O6 O 8 0.82970 0.95550 0.81550 1.0000
O7 O 8 0.75710 0.06630 0.81060 1.0000
O8 O 8 0.79100 0.12960 0.10600 1.0000
O9 O 8 0.70340 0.04550 0.02750 1.0000
O10 O 8 0.79360 0.00100 0.15640 1.0000
O11 O 8 0.60750 0.12650 0.08830 1.0000
O12 O 8 0.58460 0.03700 0.94430 1.0000
O13 O 8 0.63010 0.07810 0.76700 1.0000
O14 O 8 0.57280 0.95890 0.78320 1.0000
O15 O 8 0.72010 0.13130 0.64560 1.0000
O16 O 8 0.99110 0.85480 0.71690 1.0000
O17 O 8 0.86810 0.83110 0.77430 1.0000
O18 O 8 0.82170 0.86110 0.95610 1.0000
O19 O 8 0.74100 0.85820 0.79900 1.0000
O20 O 8 0.69760 0.83130 0.00030 1.0000
O21 O 8 0.58090 0.86700 0.92750 1.0000
O22 O 8 0.61770 0.83700 0.74060 1.0000
O23 O 4 0.92630 0.75000 0.64310 1.0000
O24 O 4 0.79430 0.75000 0.05790 1.0000
O25 O 4 0.59480 0.75000 0.02050 1.0000
O26 O 4 0.71160 0.75000 0.69130 1.0000
Si1 Si 8 0.92140 0.07110 0.68980 1.0000
Si2 Si 8 0.82590 0.03360 0.85000 1.0000
Si3 Si 8 0.77920 0.05360 0.06550 1.0000
Si4 Si 8 0.62460 0.05140 0.04810 1.0000
Si5 Si 8 0.57210 0.03600 0.82330 1.0000
Si6 Si 8 0.70340 0.06870 0.71970 1.0000
Si7 Si 8 0.91950 0.82740 0.68050 1.0000
Si8 Si 8 0.81520 0.87650 0.83610 1.0000
Si9 Si 8 0.77330 0.82780 0.04020 1.0000
Si10 Si 8 0.61850 0.82790 0.01830 1.0000
Si11 Si 8 0.56570 0.87940 0.80870 1.0000
Si12 Si 8 0.69470 0.82880 0.70920 1.0000
Lr1 Lr 8 0.98848 0.05170 0.46072 1.0000
Lr2 Lr 8 0.80409 0.05309 0.44601 1.0000
Lr3 Lr 8 0.80954 0.95014 0.69986 1.0000
Lr4 Lr 8 0.97774 0.94928 0.91169 1.0000
Lr5 Lr 4 0.69380 0.75000 0.29896 1.0000
Lr6 Lr 4 0.69348 0.75000 0.88250 1.0000
Lr7 Lr 4 0.80067 0.75000 0.81650 1.0000
Lr8 Lr 4 0.00772 0.75000 0.04166 1.0000
Lr9 Lr 4 0.07460 0.75000 0.66107 1.0000
Lr10 Lr 4 0.70028 0.25000 0.97473 1.0000
Lr11 Lr 4 0.05556 0.25000 0.58812 1.0000
loop_
_topos_bond_atom_site_label_1
_topos_bond_atom_site_label_2
_topos_bond_site_symmetry_1
_topos_bond_site_symmetry_2
_topos_bond_distance
_topos_bond_type
_topos_bond_multiplicity
O1 Si5 1_0_0_0 6_-1_0_1 1.6080 V 8
O1 Si1 1_0_0_0 1_-1_0_0 1.6110 V 8
O2 Si2 1_0_0_0 1_0_0_0 1.6110 V 8
O2 Si1 1_0_0_0 1_0_0_0 1.6110 V 8
O3 Si1 1_0_0_0 1_0_0_0 1.6090 V 8
O3 Si10 1_0_0_0 2_1_1_0 1.6100 V 8
O4 Si1 1_0_0_0 1_0_0_0 1.6080 V 8
O4 Si4 1_0_0_0 2_1_0_0 1.6110 V 8
O5 Si2 1_0_0_0 1_0_0_0 1.6100 V 8
O5 Si3 1_0_0_0 1_0_0_1 1.6100 V 8
O6 Si8 1_0_0_0 1_0_0_0 1.6090 V 8
O6 Si2 1_0_0_0 1_0_1_0 1.6090 V 8
O7 Si6 1_0_0_0 1_0_0_0 1.6100 V 8
O7 Si2 1_0_0_0 1_0_0_0 1.6110 V 8
O8 Si3 1_0_0_0 1_0_0_0 1.6090 V 8
O8 Si12 1_0_0_0 2_1_1_-1 1.6110 V 8
O9 Si4 1_0_0_0 1_0_0_0 1.6100 V 8
O9 Si3 1_0_0_0 1_0_0_0 1.6110 V 8
O10 Si3 1_0_0_0 1_0_0_0 1.6090 V 8
O10 Si6 1_0_0_0 2_1_0_-1 1.6090 V 8
O11 Si4 1_0_0_0 1_0_0_0 1.6110 V 8
O11 Si7 1_0_0_0 2_1_1_-1 1.6090 V 8
O12 Si5 1_0_0_0 1_0_0_0 1.6100 V 8
O12 Si4 1_0_0_0 1_0_0_1 1.6090 V 8
O13 Si6 1_0_0_0 1_0_0_0 1.6090 V 8
O13 Si5 1_0_0_0 1_0_0_0 1.6110 V 8
O14 Si11 1_0_0_0 1_0_0_0 1.6110 V 8
O14 Si5 1_0_0_0 1_0_1_0 1.6110 V 8
O15 Si6 1_0_0_0 1_0_0_0 1.6090 V 8
O15 Si9 1_0_0_0 2_1_1_0 1.6090 V 8
O16 Si7 1_0_0_0 1_0_0_0 1.6090 V 8
O16 Si11 1_0_0_0 6_0_0_1 1.6110 V 8
O17 Si7 1_0_0_0 1_0_0_0 1.6100 V 8
O17 Si8 1_0_0_0 1_0_0_0 1.6100 V 8
O18 Si8 1_0_0_0 1_0_0_0 1.6110 V 8
O18 Si9 1_0_0_0 1_0_0_1 1.6120 V 8
O19 Si8 1_0_0_0 1_0_0_0 1.6090 V 8
O19 Si12 1_0_0_0 1_0_0_0 1.6110 V 8
O20 Si10 1_0_0_0 1_0_0_0 1.6080 V 8
O20 Si9 1_0_0_0 1_0_0_0 1.6100 V 8
O21 Si11 1_0_0_0 1_0_0_0 1.6100 V 8
O21 Si10 1_0_0_0 1_0_0_1 1.6090 V 8
O22 Si12 1_0_0_0 1_0_0_0 1.6090 V 8
O22 Si11 1_0_0_0 1_0_0_0 1.6100 V 8
O23 Si7 1_0_0_0 1_0_0_0 1.6110 V 8
O24 Si9 1_0_0_0 1_0_0_0 1.6090 V 8
O25 Si10 1_0_0_0 1_0_0_0 1.6100 V 8
O26 Si12 1_0_0_0 1_0_0_0 1.6090 V 8
Lr1 Lr1 1_0_0_0 5_2_0_1 2.3340 V 4
Lr4 Lr4 1_0_0_0 5_2_2_2 3.1930 V 4
Lr4 Lr8 1_0_0_0 1_1_0_1 4.3300 V 8
Lr5 Lr10 1_0_0_0 2_1_1_-1 3.1410 V 4
Lr5 Lr8 1_0_0_0 3_0_1_0 4.2850 V 4
Lr6 Lr7 1_0_0_0 1_0_0_0 2.3220 V 4
Lr6 Lr9 1_0_0_0 3_0_1_1 2.4560 V 4
Lr8 Lr11 1_0_0_0 4_0_0_1 5.0290 V 4
Lr10 Lr11 1_0_0_0 3_0_0_1 3.0220 V 4
#End of data_141-TOPOS_MFI-PPT1

data_142-TOPOS_MFS-PPT1
_audit_creation_date                2025-02-23
_audit_creation_method              ToposPro
_chemical_formula_structural        MFS-PPT1
_chemical_formula_sum               'Lr4 O18 Si9'
_citation_special_details
;
Space Group: IMM2->I m m 2. File: MFS-PPT1.cif. 
;
_cell_length_a                      7.543
_cell_length_b                      14.388
_cell_length_c                      19.016
_cell_angle_alpha                   90
_cell_angle_beta                    90
_cell_angle_gamma                   90
_cell_volume                        2063.782
_cell_formula_units_Z               4
_symmetry_space_group_name_H-M      'I m m 2'
_symmetry_Int_Tables_number         44
_refine_ls_R_factor_all             0
loop_
_symmetry_equiv_pos_site_id
_symmetry_equiv_pos_as_xyz
1 x,y,z
2 -x,-y,z
3 -x,y,z
4 x,-y,z
5 1/2+x,1/2+y,1/2+z
6 1/2-x,1/2-y,1/2+z
7 1/2-x,1/2+y,1/2+z
8 1/2+x,1/2-y,1/2+z
loop_
_atom_site_label
_atom_site_type_symbol
_atom_site_symmetry_multiplicity
_atom_site_fract_x
_atom_site_fract_y
_atom_site_fract_z
_atom_site_occupancy
O1 O 8 0.32580 0.22300 0.25210 1.0000
O2 O 8 0.25060 0.26680 0.12120 1.0000
O3 O 8 0.24890 0.09150 0.16190 1.0000
O4 O 8 0.25100 0.59140 0.03320 1.0000
O5 O 8 0.17440 0.75910 0.98770 1.0000
O6 O 4 0.00000 0.20570 0.20540 1.0000
O7 O 4 0.00000 0.09130 0.94890 1.0000
O8 O 4 0.00000 0.23830 0.86790 1.0000
O9 O 4 0.00000 0.59110 0.81910 1.0000
O10 O 4 0.50000 0.71870 0.02530 1.0000
O11 O 2 0.50000 0.00000 0.09530 1.0000
O12 O 4 0.17460 0.00000 0.04630 1.0000
O13 O 2 0.50000 0.50000 0.96570 1.0000
O14 O 4 0.17420 0.50000 0.91720 1.0000
Si1 Si 8 0.20630 0.19680 0.18480 1.0000
Si2 Si 8 0.29370 0.70040 0.04210 1.0000
Si3 Si 4 0.00000 0.20320 0.94820 1.0000
Si4 Si 4 0.00000 0.69930 0.79770 1.0000
Si5 Si 4 0.29350 0.00000 0.11660 1.0000
Si6 Si 4 0.29360 0.50000 0.98730 1.0000
Si7 Si 2 0.00000 0.50000 0.86830 1.0000
Si8 Si 2 0.00000 0.00000 0.99780 1.0000
Lr1 Lr 4 0.00000 0.14950 0.07912 1.0000
Lr2 Lr 4 0.50000 0.64888 0.88807 1.0000
Lr3 Lr 2 0.50000 0.00000 0.21512 1.0000
Lr4 Lr 2 0.50000 0.50000 0.19145 1.0000
Lr5 Lr 2 0.00000 0.50000 0.32318 1.0000
Lr6 Lr 2 0.00000 0.00000 0.25815 1.0000
loop_
_topos_bond_atom_site_label_1
_topos_bond_atom_site_label_2
_topos_bond_site_symmetry_1
_topos_bond_site_symmetry_2
_topos_bond_distance
_topos_bond_type
_topos_bond_multiplicity
O1 Si1 1_0_0_0 1_0_0_0 1.6100 V 8
O1 Si4 1_0_0_0 5_0_-1_-1 1.6110 V 8
O2 Si1 1_0_0_0 1_0_0_0 1.6090 V 8
O2 Si2 1_0_0_0 4_0_1_0 1.6100 V 8
O3 Si1 1_0_0_0 1_0_0_0 1.6090 V 8
O3 Si5 1_0_0_0 1_0_0_0 1.6090 V 8
O4 Si2 1_0_0_0 1_0_0_0 1.6100 V 8
O4 Si6 1_0_0_0 1_0_0_-1 1.6110 V 8
O5 Si3 1_0_0_0 2_0_1_0 1.6090 V 8
O5 Si2 1_0_0_0 1_0_0_1 1.6100 V 8
O6 Si1 1_0_0_0 1_0_0_0 1.6100 V 8
O7 Si8 1_0_0_0 1_0_0_0 1.6090 V 4
O7 Si3 1_0_0_0 1_0_0_0 1.6100 V 4
O8 Si3 1_0_0_0 1_0_0_0 1.6080 V 4
O8 Si4 1_0_0_0 2_0_1_0 1.6090 V 4
O9 Si4 1_0_0_0 1_0_0_0 1.6090 V 4
O9 Si7 1_0_0_0 1_0_0_0 1.6100 V 4
O10 Si2 1_0_0_0 1_0_0_0 1.6100 V 8
O11 Si5 1_0_0_0 1_0_0_0 1.6090 V 4
O12 Si5 1_0_0_0 1_0_0_0 1.6100 V 4
O12 Si8 1_0_0_0 1_0_0_-1 1.6080 V 4
O13 Si6 1_0_0_0 1_0_0_0 1.6100 V 4
O14 Si6 1_0_0_0 1_0_0_0 1.6090 V 4
O14 Si7 1_0_0_0 1_0_0_0 1.6100 V 4
Lr2 Lr6 1_0_0_0 5_0_0_0 3.2700 V 4
Lr2 Lr5 1_0_0_0 5_0_0_0 5.2000 V 4
Lr4 Lr5 1_0_0_0 1_0_0_0 4.5280 V 4
#End of data_142-TOPOS_MFS-PPT1

data_143-TOPOS_MON-PPT1
_audit_creation_date                2025-02-23
_audit_creation_method              ToposPro
_chemical_formula_structural        MON-PPT1
_chemical_formula_sum               'Lr1 O2 Si1'
_citation_special_details
;
Space Group: I41/AMD->I 41/a m d. File: MON-PPT1.cif. 
;
_cell_length_a                      7.135
_cell_length_b                      7.135
_cell_length_c                      17.809
_cell_angle_alpha                   90
_cell_angle_beta                    90
_cell_angle_gamma                   90
_cell_volume                        906.6246
_cell_formula_units_Z               16
_symmetry_space_group_name_H-M      'I 41/a m d'
_symmetry_Int_Tables_number         141
_refine_ls_R_factor_all             0
loop_
_symmetry_equiv_pos_site_id
_symmetry_equiv_pos_as_xyz
1 x,y,z
2 -x,-y,z
3 x,1/2-y,1/4-z
4 -x,1/2+y,1/4-z
5 -y,-x,-z
6 y,x,-z
7 y,1/2-x,1/4+z
8 -y,1/2+x,1/4+z
9 -x,1/2-y,1/4-z
10 x,1/2+y,1/4-z
11 -x,y,z
12 x,-y,z
13 y,1/2+x,1/4+z
14 -y,1/2-x,1/4+z
15 -y,x,-z
16 y,-x,-z
17 1/2+x,1/2+y,1/2+z
18 1/2-x,1/2-y,1/2+z
19 1/2+x,-y,3/4-z
20 1/2-x,y,3/4-z
21 1/2-y,1/2-x,1/2-z
22 1/2+y,1/2+x,1/2-z
23 1/2+y,-x,3/4+z
24 1/2-y,x,3/4+z
25 1/2-x,-y,3/4-z
26 1/2+x,y,3/4-z
27 1/2-x,1/2+y,1/2+z
28 1/2+x,1/2-y,1/2+z
29 1/2+y,x,3/4+z
30 1/2-y,-x,3/4+z
31 1/2-y,1/2+x,1/2-z
32 1/2+y,1/2-x,1/2-z
loop_
_atom_site_label
_atom_site_type_symbol
_atom_site_symmetry_multiplicity
_atom_site_fract_x
_atom_site_fract_y
_atom_site_fract_z
_atom_site_occupancy
O1 O 8 0.50000 0.50000 0.23370 1.0000
O2 O 16 0.31580 0.81580 0.25000 1.0000
O3 O 8 0.50000 0.75000 0.12500 1.0000
Si1 Si 16 0.50000 0.72030 0.21450 1.0000
Lr1 Lr 8 0.50000 0.00000 0.32150 1.0000
Lr2 Lr 8 0.00000 0.00000 0.10207 1.0000
loop_
_topos_bond_atom_site_label_1
_topos_bond_atom_site_label_2
_topos_bond_site_symmetry_1
_topos_bond_site_symmetry_2
_topos_bond_distance
_topos_bond_type
_topos_bond_multiplicity
O1 Si1 1_0_0_0 1_0_0_0 1.6090 V 16
O2 Si1 1_0_0_0 1_0_0_0 1.6100 V 32
O3 Si1 1_0_0_0 1_0_0_0 1.6080 V 16
Lr1 Lr1 1_0_0_0 21_0_0_0 2.5470 V 4
Lr2 Lr2 1_0_0_0 5_0_0_0 3.6360 V 4
Lr2 Lr2 1_0_0_0 3_0_0_0 3.6600 V 8
#End of data_143-TOPOS_MON-PPT1

data_144-TOPOS_MOR-PPT1
_audit_creation_date                2025-02-23
_audit_creation_method              ToposPro
_chemical_formula_structural        MOR-PPT1
_chemical_formula_sum               'Lr5 O24 Si12'
_citation_special_details
;
Space Group: CMCM->C m c m. File: MOR-PPT1.cif. 
;
_cell_length_a                      18.256
_cell_length_b                      20.534
_cell_length_c                      7.542
_cell_angle_alpha                   90
_cell_angle_beta                    90
_cell_angle_gamma                   90
_cell_volume                        2827.26
_cell_formula_units_Z               4
_symmetry_space_group_name_H-M      'C m c m'
_symmetry_Int_Tables_number         63
_refine_ls_R_factor_all             0
loop_
_symmetry_equiv_pos_site_id
_symmetry_equiv_pos_as_xyz
1 x,y,z
2 -x,-y,1/2+z
3 x,-y,-z
4 -x,y,1/2-z
5 -x,-y,-z
6 x,y,1/2-z
7 -x,y,z
8 x,-y,1/2+z
9 1/2+x,1/2+y,z
10 1/2-x,1/2-y,1/2+z
11 1/2+x,1/2-y,-z
12 1/2-x,1/2+y,1/2-z
13 1/2-x,1/2-y,-z
14 1/2+x,1/2+y,1/2-z
15 1/2-x,1/2+y,z
16 1/2+x,1/2-y,1/2+z
loop_
_atom_site_label
_atom_site_type_symbol
_atom_site_symmetry_multiplicity
_atom_site_fract_x
_atom_site_fract_y
_atom_site_fract_z
_atom_site_occupancy
O1 O 16 0.37570 0.09240 0.92430 1.0000
O2 O 16 0.23910 0.12230 0.99920 1.0000
O3 O 16 0.37570 0.30580 0.92420 1.0000
O4 O 8 0.28110 0.00000 0.00000 1.0000
O5 O 8 0.32680 0.07950 0.25000 1.0000
O6 O 8 0.32530 0.30890 0.25000 1.0000
O7 O 8 0.09060 0.30090 0.25000 1.0000
O8 O 8 0.25000 0.25000 0.00000 1.0000
O9 O 4 0.00000 0.40050 0.25000 1.0000
O10 O 4 0.00000 0.20130 0.25000 1.0000
Si1 Si 16 0.30570 0.07360 0.04350 1.0000
Si2 Si 16 0.30280 0.31060 0.04370 1.0000
Si3 Si 8 0.08480 0.37910 0.25000 1.0000
Si4 Si 8 0.08480 0.22270 0.25000 1.0000
Lr1 Lr 4 0.00000 0.97137 0.25000 1.0000
Lr2 Lr 4 0.00000 0.30306 0.75000 1.0000
Lr3 Lr 4 0.50000 0.01727 0.25000 1.0000
Lr4 Lr 8 0.30523 0.19318 0.75000 1.0000
loop_
_topos_bond_atom_site_label_1
_topos_bond_atom_site_label_2
_topos_bond_site_symmetry_1
_topos_bond_site_symmetry_2
_topos_bond_distance
_topos_bond_type
_topos_bond_multiplicity
O1 Si1 1_0_0_0 1_0_0_1 1.6090 V 16
O1 Si3 1_0_0_0 10_0_0_0 1.6100 V 16
O2 Si2 1_0_0_0 13_0_0_1 1.6090 V 16
O2 Si1 1_0_0_0 1_0_0_1 1.6090 V 16
O3 Si4 1_0_0_0 10_0_0_0 1.6090 V 16
O3 Si2 1_0_0_0 1_0_0_1 1.6100 V 16
O4 Si1 1_0_0_0 1_0_0_0 1.6100 V 16
O5 Si1 1_0_0_0 1_0_0_0 1.6090 V 16
O6 Si2 1_0_0_0 1_0_0_0 1.6100 V 16
O7 Si3 1_0_0_0 1_0_0_0 1.6090 V 8
O7 Si4 1_0_0_0 1_0_0_0 1.6090 V 8
O8 Si2 1_0_0_0 1_0_0_0 1.6080 V 16
O9 Si3 1_0_0_0 1_0_0_0 1.6090 V 8
O10 Si4 1_0_0_0 1_0_0_0 1.6090 V 8
Lr1 Lr2 1_0_0_0 2_0_1_-1 5.6350 V 4
Lr1 Lr1 1_0_0_0 2_0_2_-1 3.9500 V 4
Lr2 Lr3 1_0_0_0 10_0_0_0 3.6890 V 4
Lr3 Lr3 1_0_0_0 2_1_0_0 3.8370 V 4
#End of data_144-TOPOS_MOR-PPT1

data_145-TOPOS_MOZ-PPT1
_audit_creation_date                2025-02-23
_audit_creation_method              ToposPro
_chemical_formula_structural        MOZ-PPT1
_chemical_formula_sum               'Lr8 O54 Si27'
_citation_special_details
;
Space Group: P6/MMM->P 6/m m m. File: MOZ-PPT1.cif. 
;
_cell_length_a                      31.202
_cell_length_b                      31.202
_cell_length_c                      7.551
_cell_angle_alpha                   90
_cell_angle_beta                    90
_cell_angle_gamma                   120
_cell_volume                        6366.489
_cell_formula_units_Z               4
_symmetry_space_group_name_H-M      'P 6/m m m'
_symmetry_Int_Tables_number         191
_refine_ls_R_factor_all             0
loop_
_symmetry_equiv_pos_site_id
_symmetry_equiv_pos_as_xyz
1 x,y,z
2 -x,-y,z
3 -y,x-y,z
4 -x+y,-x,z
5 x-y,x,z
6 y,-x+y,z
7 x-y,-y,-z
8 -x,-x+y,-z
9 y,x,-z
10 -y,-x,-z
11 x,x-y,-z
12 -x+y,y,-z
13 -x,-y,-z
14 x,y,-z
15 y,-x+y,-z
16 x-y,x,-z
17 -x+y,-x,-z
18 -y,x-y,-z
19 -x+y,y,z
20 x,x-y,z
21 -y,-x,z
22 y,x,z
23 -x,-x+y,z
24 x-y,-y,z
loop_
_atom_site_label
_atom_site_type_symbol
_atom_site_symmetry_multiplicity
_atom_site_fract_x
_atom_site_fract_y
_atom_site_fract_z
_atom_site_occupancy
O1 O 24 0.24210 0.17830 0.32590 1.0000
O2 O 24 0.33410 0.24760 0.26390 1.0000
O3 O 24 0.40370 0.33950 0.32590 1.0000
O4 O 24 0.42780 0.27370 0.22440 1.0000
O5 O 24 0.51760 0.33960 0.32600 1.0000
O6 O 6 0.16310 0.16310 0.50000 1.0000
O7 O 6 0.41830 0.41830 0.50000 1.0000
O8 O 6 0.18960 0.09480 0.50000 1.0000
O9 O 12 0.30750 0.15375 0.22410 1.0000
O10 O 12 0.49540 0.24770 0.26270 1.0000
O11 O 12 0.27610 0.19650 0.00000 1.0000
O12 O 12 0.38540 0.30550 0.00000 1.0000
O13 O 12 0.50190 0.30590 0.00000 1.0000
O14 O 12 0.48710 0.39260 0.50000 1.0000
O15 O 6 0.58160 0.41840 0.50000 1.0000
Si1 Si 24 0.29000 0.19400 0.20370 1.0000
Si2 Si 24 0.38770 0.29160 0.20380 1.0000
Si3 Si 24 0.48570 0.29170 0.20370 1.0000
Si4 Si 12 0.20920 0.15330 0.50000 1.0000
Si5 Si 12 0.42850 0.37250 0.50000 1.0000
Si6 Si 12 0.52580 0.37270 0.50000 1.0000
Lr1 Lr 6 0.29084 0.29084 0.50000 1.0000
Lr2 Lr 6 0.38781 0.19390 0.50000 1.0000
Lr3 Lr 6 0.38780 0.19390 0.00000 1.0000
Lr4 Lr 1 0.00000 0.00000 0.00000 1.0000
Lr5 Lr 6 0.29085 0.29085 0.00000 1.0000
Lr6 Lr 3 0.50000 0.50000 0.00000 1.0000
Lr7 Lr 2 0.66667 0.33333 0.00000 1.0000
Lr8 Lr 2 0.66667 0.33333 0.50000 1.0000
loop_
_topos_bond_atom_site_label_1
_topos_bond_atom_site_label_2
_topos_bond_site_symmetry_1
_topos_bond_site_symmetry_2
_topos_bond_distance
_topos_bond_type
_topos_bond_multiplicity
O1 Si4 1_0_0_0 1_0_0_0 1.6090 V 24
O1 Si1 1_0_0_0 1_0_0_0 1.6100 V 24
O2 Si2 1_0_0_0 1_0_0_0 1.6100 V 24
O2 Si1 1_0_0_0 1_0_0_0 1.6110 V 24
O3 Si2 1_0_0_0 1_0_0_0 1.6080 V 24
O3 Si5 1_0_0_0 1_0_0_0 1.6090 V 24
O4 Si3 1_0_0_0 1_0_0_0 1.6090 V 24
O4 Si2 1_0_0_0 1_0_0_0 1.6130 V 24
O5 Si3 1_0_0_0 1_0_0_0 1.6090 V 24
O5 Si6 1_0_0_0 1_0_0_0 1.6110 V 24
O6 Si4 1_0_0_0 1_0_0_0 1.6130 V 12
O7 Si5 1_0_0_0 1_0_0_0 1.6120 V 12
O8 Si4 1_0_0_0 1_0_0_0 1.6090 V 12
O9 Si1 1_0_0_0 1_0_0_0 1.6080 V 24
O10 Si3 1_0_0_0 1_0_0_0 1.6090 V 24
O11 Si1 1_0_0_0 1_0_0_0 1.6110 V 24
O12 Si2 1_0_0_0 1_0_0_0 1.6100 V 24
O13 Si3 1_0_0_0 1_0_0_0 1.6110 V 24
O14 Si5 1_0_0_0 1_0_0_0 1.6090 V 12
O14 Si6 1_0_0_0 1_0_0_0 1.6100 V 12
O15 Si6 1_0_0_0 1_0_0_0 1.6070 V 12
Lr1 Lr5 1_0_0_0 1_0_0_0 3.7760 V 12
Lr4 Lr5 1_0_0_0 1_0_0_0 9.0750 V 6
Lr4 Lr4 1_0_0_0 1_0_0_-1 7.5510 V 1
Lr5 Lr6 1_0_0_0 1_0_0_0 6.5260 V 6
Lr6 Lr7 1_0_0_0 1_0_0_0 9.0070 V 6
Lr6 Lr6 1_0_0_0 1_0_0_-1 7.5510 V 3
Lr7 Lr8 1_0_0_0 1_0_0_0 3.7760 V 4
#End of data_145-TOPOS_MOZ-PPT1

data_146-TOPOS_MRT-PPT1
_audit_creation_date                2025-02-23
_audit_creation_method              ToposPro
_chemical_formula_structural        MRT-PPT1
_chemical_formula_sum               'Lr1 O6 Si3'
_citation_special_details
;
Space Group: PMMA->P m m a. File: MRT-PPT1.cif. 
;
_cell_length_a                      13.6207
_cell_length_b                      7.5466
_cell_length_c                      13.6219
_cell_angle_alpha                   90
_cell_angle_beta                    90
_cell_angle_gamma                   90
_cell_volume                        1400.195
_cell_formula_units_Z               8
_symmetry_space_group_name_H-M      'P m m a'
_symmetry_Int_Tables_number         51
_refine_ls_R_factor_all             0
loop_
_symmetry_equiv_pos_site_id
_symmetry_equiv_pos_as_xyz
1 x,y,z
2 1/2-x,-y,z
3 1/2+x,-y,-z
4 -x,y,-z
5 -x,-y,-z
6 1/2+x,y,-z
7 1/2-x,y,z
8 x,-y,z
loop_
_atom_site_label
_atom_site_type_symbol
_atom_site_symmetry_multiplicity
_atom_site_fract_x
_atom_site_fract_y
_atom_site_fract_z
_atom_site_occupancy
O1 O 8 0.57778 0.27319 0.32564 1.0000
O2 O 8 0.58882 0.17414 0.14077 1.0000
O3 O 8 0.89340 0.17420 0.65767 1.0000
O4 O 4 0.57423 0.00000 0.82168 1.0000
O5 O 4 0.75000 0.23699 0.24096 1.0000
O6 O 4 0.63414 0.50000 0.19019 1.0000
O7 O 4 0.94494 0.50000 0.61206 1.0000
O8 O 4 0.00000 0.23394 0.50000 1.0000
O9 O 2 0.75000 0.00000 0.74428 1.0000
O10 O 2 0.50000 0.00000 0.00000 1.0000
Si1 Si 8 0.63760 0.29603 0.22456 1.0000
Si2 Si 8 0.97873 0.29560 0.61113 1.0000
Si3 Si 4 0.63443 0.00000 0.71998 1.0000
Si4 Si 4 0.52559 0.00000 0.11512 1.0000
Lr1 Lr 2 0.75000 0.00000 0.39603 1.0000
Lr2 Lr 2 0.75000 0.00000 0.03382 1.0000
Lr3 Lr 2 0.75000 0.50000 0.48614 1.0000
Lr4 Lr 2 0.75000 0.50000 0.88852 1.0000
loop_
_topos_bond_atom_site_label_1
_topos_bond_atom_site_label_2
_topos_bond_site_symmetry_1
_topos_bond_site_symmetry_2
_topos_bond_distance
_topos_bond_type
_topos_bond_multiplicity
O1 Si1 1_0_0_0 1_0_0_0 1.6090 V 8
O1 Si2 1_0_0_0 6_-1_0_1 1.6100 V 8
O2 Si1 1_0_0_0 1_0_0_0 1.6090 V 8
O2 Si4 1_0_0_0 1_0_0_0 1.6100 V 8
O3 Si2 1_0_0_0 1_0_0_0 1.6100 V 8
O3 Si3 1_0_0_0 2_1_0_0 1.6100 V 8
O4 Si3 1_0_0_0 1_0_0_0 1.6100 V 4
O4 Si4 1_0_0_0 4_1_0_1 1.6090 V 4
O5 Si1 1_0_0_0 1_0_0_0 1.6100 V 8
O6 Si1 1_0_0_0 1_0_0_0 1.6100 V 8
O7 Si2 1_0_0_0 1_0_0_0 1.6100 V 8
O8 Si2 1_0_0_0 1_-1_0_0 1.6100 V 8
O9 Si3 1_0_0_0 1_0_0_0 1.6090 V 4
O10 Si4 1_0_0_0 1_0_0_0 1.6060 V 4
Lr1 Lr3 1_0_0_0 1_0_0_0 3.9680 V 4
Lr2 Lr4 1_0_0_0 1_0_-1_-1 4.2610 V 4
Lr3 Lr4 1_0_0_0 1_0_0_0 5.4810 V 2
Lr4 Lr4 1_0_0_0 3_0_1_2 7.4570 V 2
#End of data_146-TOPOS_MRT-PPT1

data_147-TOPOS_MSE-PPT1
_audit_creation_date                2025-02-23
_audit_creation_method              ToposPro
_chemical_formula_structural        MSE-PPT1
_chemical_formula_sum               'Lr5 O28 Si14'
_citation_special_details
;
Space Group: P42/MNM->P 42/m n m. File: MSE-PPT1.cif. 
;
_cell_length_a                      18.246
_cell_length_b                      18.246
_cell_length_c                      20.557
_cell_angle_alpha                   90
_cell_angle_beta                    90
_cell_angle_gamma                   90
_cell_volume                        6843.765
_cell_formula_units_Z               8
_symmetry_space_group_name_H-M      'P 42/m n m'
_symmetry_Int_Tables_number         136
_refine_ls_R_factor_all             0
loop_
_symmetry_equiv_pos_site_id
_symmetry_equiv_pos_as_xyz
1 x,y,z
2 -x,-y,z
3 1/2+x,1/2-y,1/2-z
4 1/2-x,1/2+y,1/2-z
5 -y,-x,-z
6 y,x,-z
7 1/2+y,1/2-x,1/2+z
8 1/2-y,1/2+x,1/2+z
9 -x,-y,-z
10 x,y,-z
11 1/2-x,1/2+y,1/2+z
12 1/2+x,1/2-y,1/2+z
13 y,x,z
14 -y,-x,z
15 1/2-y,1/2+x,1/2-z
16 1/2+y,1/2-x,1/2-z
loop_
_atom_site_label
_atom_site_type_symbol
_atom_site_symmetry_multiplicity
_atom_site_fract_x
_atom_site_fract_y
_atom_site_fract_z
_atom_site_occupancy
O1 O 16 0.12870 0.72290 0.69410 1.0000
O2 O 16 0.05530 0.75150 0.58730 1.0000
O3 O 16 0.18000 0.68050 0.58110 1.0000
O4 O 16 0.05380 0.75070 0.80050 1.0000
O5 O 16 0.18440 0.69130 0.80880 1.0000
O6 O 16 0.08310 0.26120 0.62300 1.0000
O7 O 16 0.03180 0.13370 0.58620 1.0000
O8 O 16 0.07890 0.25530 0.75040 1.0000
O9 O 16 0.03330 0.13500 0.80850 1.0000
O10 O 16 0.06090 0.25390 0.87710 1.0000
O11 O 8 0.17920 0.82080 0.61130 1.0000
O12 O 8 0.17160 0.82840 0.77230 1.0000
O13 O 8 0.04930 0.23840 0.50000 1.0000
O14 O 8 0.17280 0.17280 0.68590 1.0000
O15 O 8 0.08130 0.08130 0.69780 1.0000
O16 O 8 0.17650 0.17650 0.90870 1.0000
O17 O 4 0.00000 0.00000 0.62100 1.0000
O18 O 4 0.00000 0.00000 0.77540 1.0000
O19 O 8 0.10060 0.24280 0.00000 1.0000
Si1 Si 16 0.13590 0.74440 0.61840 1.0000
Si2 Si 16 0.13440 0.74850 0.76890 1.0000
Si3 Si 16 0.02710 0.22080 0.57420 1.0000
Si4 Si 16 0.13160 0.25080 0.68770 1.0000
Si5 Si 16 0.02990 0.22320 0.80900 1.0000
Si6 Si 16 0.12950 0.24850 0.92610 1.0000
Si7 Si 8 0.06220 0.06220 0.62320 1.0000
Si8 Si 8 0.06220 0.06220 0.77240 1.0000
Lr1 Lr 8 0.29106 0.70894 0.69605 1.0000
Lr2 Lr 8 0.09169 0.90831 0.69340 1.0000
Lr3 Lr 8 0.12597 0.12597 0.69217 1.0000
Lr4 Lr 2 0.00000 0.00000 0.50000 1.0000
Lr5 Lr 2 0.00000 0.00000 0.00000 1.0000
Lr6 Lr 8 0.00000 0.50000 0.69628 1.0000
Lr7 Lr 4 0.00000 0.50000 0.50000 1.0000
loop_
_topos_bond_atom_site_label_1
_topos_bond_atom_site_label_2
_topos_bond_site_symmetry_1
_topos_bond_site_symmetry_2
_topos_bond_distance
_topos_bond_type
_topos_bond_multiplicity
O1 Si1 1_0_0_0 1_0_0_0 1.6100 V 16
O1 Si2 1_0_0_0 1_0_0_0 1.6100 V 16
O2 Si1 1_0_0_0 1_0_0_0 1.6090 V 16
O2 Si3 1_0_0_0 2_0_1_0 1.6090 V 16
O3 Si1 1_0_0_0 1_0_0_0 1.6110 V 16
O3 Si6 1_0_0_0 15_0_0_1 1.6090 V 16
O4 Si2 1_0_0_0 1_0_0_0 1.6080 V 16
O4 Si5 1_0_0_0 2_0_1_0 1.6090 V 16
O5 Si2 1_0_0_0 1_0_0_0 1.6110 V 16
O5 Si4 1_0_0_0 15_0_0_1 1.6090 V 16
O6 Si4 1_0_0_0 1_0_0_0 1.6090 V 16
O6 Si3 1_0_0_0 1_0_0_0 1.6110 V 16
O7 Si7 1_0_0_0 1_0_0_0 1.6090 V 16
O7 Si3 1_0_0_0 1_0_0_0 1.6110 V 16
O8 Si4 1_0_0_0 1_0_0_0 1.6100 V 16
O8 Si5 1_0_0_0 1_0_0_0 1.6100 V 16
O9 Si8 1_0_0_0 1_0_0_0 1.6100 V 16
O9 Si5 1_0_0_0 1_0_0_0 1.6110 V 16
O10 Si6 1_0_0_0 1_0_0_0 1.6100 V 16
O10 Si5 1_0_0_0 1_0_0_0 1.6100 V 16
O11 Si1 1_0_0_0 1_0_0_0 1.6090 V 16
O12 Si2 1_0_0_0 1_0_0_0 1.6100 V 16
O13 Si3 1_0_0_0 1_0_0_0 1.6110 V 16
O14 Si4 1_0_0_0 1_0_0_0 1.6100 V 16
O15 Si7 1_0_0_0 1_0_0_0 1.6110 V 8
O15 Si8 1_0_0_0 1_0_0_0 1.6110 V 8
O16 Si6 1_0_0_0 1_0_0_0 1.6090 V 16
O17 Si7 1_0_0_0 1_0_0_0 1.6060 V 8
O18 Si8 1_0_0_0 1_0_0_0 1.6060 V 8
O19 Si6 1_0_0_0 1_0_0_-1 1.6110 V 16
Lr5 Lr7 1_0_0_0 7_-1_0_-1 9.1230 V 8
Lr6 Lr7 1_0_0_0 1_0_0_0 4.0350 V 8
Lr6 Lr6 1_0_0_0 15_0_0_1 2.2090 V 4
#End of data_147-TOPOS_MSE-PPT1

data_148-TOPOS_MSO-PPT1
_audit_creation_date                2025-02-23
_audit_creation_method              ToposPro
_chemical_formula_structural        MSO-PPT1
_chemical_formula_sum               'Lr13 O60 Si30'
_citation_special_details
;
Space Group: R-3M->R -3 m. File: MSO-PPT1.cif. 
;
_cell_length_a                      17.165
_cell_length_b                      17.165
_cell_length_c                      19.785
_cell_angle_alpha                   90
_cell_angle_beta                    90
_cell_angle_gamma                   120
_cell_volume                        5048.407
_cell_formula_units_Z               3
_symmetry_space_group_name_H-M      'R -3 m'
_symmetry_Int_Tables_number         166
_refine_ls_R_factor_all             0
loop_
_symmetry_equiv_pos_site_id
_symmetry_equiv_pos_as_xyz
1 x,y,z
2 -y,x-y,z
3 -x+y,-x,z
4 x-y,-y,-z
5 -x,-x+y,-z
6 y,x,-z
7 -x,-y,-z
8 y,-x+y,-z
9 x-y,x,-z
10 -x+y,y,z
11 x,x-y,z
12 -y,-x,z
13 2/3+x,1/3+y,1/3+z
14 1/3+x,2/3+y,2/3+z
15 2/3-y,1/3+x-y,1/3+z
16 1/3-y,2/3+x-y,2/3+z
17 2/3-x+y,1/3-x,1/3+z
18 1/3-x+y,2/3-x,2/3+z
19 2/3+x-y,1/3-y,1/3-z
20 1/3+x-y,2/3-y,2/3-z
21 2/3-x,1/3-x+y,1/3-z
22 1/3-x,2/3-x+y,2/3-z
23 2/3+y,1/3+x,1/3-z
24 1/3+y,2/3+x,2/3-z
25 2/3-x,1/3-y,1/3-z
26 1/3-x,2/3-y,2/3-z
27 2/3+y,1/3-x+y,1/3-z
28 1/3+y,2/3-x+y,2/3-z
29 2/3+x-y,1/3+x,1/3-z
30 1/3+x-y,2/3+x,2/3-z
31 2/3-x+y,1/3+y,1/3+z
32 1/3-x+y,2/3+y,2/3+z
33 2/3+x,1/3+x-y,1/3+z
34 1/3+x,2/3+x-y,2/3+z
35 2/3-y,1/3-x,1/3+z
36 1/3-y,2/3-x,2/3+z
loop_
_atom_site_label
_atom_site_type_symbol
_atom_site_symmetry_multiplicity
_atom_site_fract_x
_atom_site_fract_y
_atom_site_fract_z
_atom_site_occupancy
O1 O 36 0.98390 0.24840 0.31460 1.0000
O2 O 36 0.99820 0.20640 0.18920 1.0000
O3 O 36 0.02540 0.26420 0.06370 1.0000
O4 O 18 0.09525 0.19050 0.28540 1.0000
O5 O 18 0.07430 0.14860 0.10280 1.0000
O6 O 18 0.92080 0.07920 0.28080 1.0000
O7 O 18 0.90270 0.09730 0.09090 1.0000
Si1 Si 36 0.99950 0.18110 0.26740 1.0000
Si2 Si 36 0.00020 0.17910 0.11170 1.0000
Si3 Si 18 0.00000 0.30560 0.00000 1.0000
Lr1 Lr 18 0.81025 0.18975 0.31685 1.0000
Lr2 Lr 9 0.83333 0.16667 0.16667 1.0000
Lr3 Lr 6 0.00000 0.00000 0.18955 1.0000
Lr4 Lr 3 0.33333 0.66667 0.16667 1.0000
Lr5 Lr 3 0.00000 0.00000 0.00000 1.0000
loop_
_topos_bond_atom_site_label_1
_topos_bond_atom_site_label_2
_topos_bond_site_symmetry_1
_topos_bond_site_symmetry_2
_topos_bond_distance
_topos_bond_type
_topos_bond_multiplicity
O1 Si1 1_0_0_0 1_0_0_0 1.6090 V 36
O1 Si3 1_0_0_0 17_0_0_0 1.6110 V 36
O2 Si1 1_0_0_0 1_0_0_0 1.6100 V 36
O2 Si2 1_0_0_0 1_1_0_0 1.6090 V 36
O3 Si2 1_0_0_0 1_0_0_0 1.6100 V 36
O3 Si3 1_0_0_0 1_0_0_0 1.6100 V 36
O4 Si1 1_0_0_0 1_-1_0_0 1.6090 V 36
O5 Si2 1_0_0_0 1_0_0_0 1.6090 V 36
O6 Si1 1_0_0_0 1_0_0_0 1.6100 V 36
O7 Si2 1_0_0_0 1_1_0_0 1.6100 V 36
#End of data_148-TOPOS_MSO-PPT1

data_149-TOPOS_MTF-PPT1
_audit_creation_date                2025-02-23
_audit_creation_method              ToposPro
_chemical_formula_structural        MTF-PPT1
_chemical_formula_sum               'Lr3 O44 Si22'
_citation_special_details
;
Space Group: C2/M->C 2/m. File: MTF-PPT1.cif. 
;
_cell_length_a                      9.629
_cell_length_b                      30.394
_cell_length_c                      7.249
_cell_angle_alpha                   90
_cell_angle_beta                    90.45
_cell_angle_gamma                   90
_cell_volume                        2121.455
_cell_formula_units_Z               2
_symmetry_space_group_name_H-M      'C 2/m'
_symmetry_Int_Tables_number         12
_refine_ls_R_factor_all             0
loop_
_symmetry_equiv_pos_site_id
_symmetry_equiv_pos_as_xyz
1 x,y,z
2 -x,y,-z
3 -x,-y,-z
4 x,-y,z
5 1/2+x,1/2+y,z
6 1/2-x,1/2+y,-z
7 1/2-x,1/2-y,-z
8 1/2+x,1/2-y,z
loop_
_atom_site_label
_atom_site_type_symbol
_atom_site_symmetry_multiplicity
_atom_site_fract_x
_atom_site_fract_y
_atom_site_fract_z
_atom_site_occupancy
O1 O 8 0.27230 0.14410 0.13970 1.0000
O2 O 8 0.04720 0.18610 0.23990 1.0000
O3 O 8 0.26730 0.18560 0.45710 1.0000
O4 O 8 0.11900 0.11350 0.41090 1.0000
O5 O 8 0.16490 0.34050 0.20770 1.0000
O6 O 8 0.24200 0.41960 0.10560 1.0000
O7 O 8 0.06920 0.05260 0.65680 1.0000
O8 O 8 0.05290 0.26900 0.34500 1.0000
O9 O 8 0.31530 0.26890 0.25510 1.0000
O10 O 4 0.00000 0.38900 0.00000 1.0000
O11 O 4 0.00000 0.06760 0.00000 1.0000
O12 O 4 0.00000 0.24920 0.00000 1.0000
O13 O 4 0.15850 0.00000 0.91930 1.0000
Si1 Si 8 0.12200 0.05030 0.86780 1.0000
Si2 Si 8 0.17670 0.15720 0.31230 1.0000
Si3 Si 8 0.15900 0.37600 0.04330 1.0000
Si4 Si 8 0.19180 0.29850 0.33790 1.0000
Si5 Si 8 0.97850 0.23390 0.21040 1.0000
Si6 Si 4 0.00000 0.08330 0.50000 1.0000
Lr1 Lr 4 0.00000 0.14391 0.00000 1.0000
Lr2 Lr 2 0.50000 0.00000 0.50000 1.0000
loop_
_topos_bond_atom_site_label_1
_topos_bond_atom_site_label_2
_topos_bond_site_symmetry_1
_topos_bond_site_symmetry_2
_topos_bond_distance
_topos_bond_type
_topos_bond_multiplicity
O1 Si2 1_0_0_0 1_0_0_0 1.6090 V 8
O1 Si3 1_0_0_0 7_0_0_0 1.6080 V 8
O2 Si2 1_0_0_0 1_0_0_0 1.6100 V 8
O2 Si5 1_0_0_0 1_-1_0_0 1.6100 V 8
O3 Si2 1_0_0_0 1_0_0_0 1.6100 V 8
O3 Si4 1_0_0_0 7_0_0_1 1.6090 V 8
O4 Si6 1_0_0_0 1_0_0_0 1.6080 V 8
O4 Si2 1_0_0_0 1_0_0_0 1.6090 V 8
O5 Si4 1_0_0_0 1_0_0_0 1.6070 V 8
O5 Si3 1_0_0_0 1_0_0_0 1.6080 V 8
O6 Si3 1_0_0_0 1_0_0_0 1.6100 V 8
O6 Si1 1_0_0_0 7_0_0_1 1.6080 V 8
O7 Si1 1_0_0_0 1_0_0_0 1.6100 V 8
O7 Si6 1_0_0_0 1_0_0_0 1.6110 V 8
O8 Si4 1_0_0_0 1_0_0_0 1.6110 V 8
O8 Si5 1_0_0_0 1_-1_0_0 1.6100 V 8
O9 Si4 1_0_0_0 1_0_0_0 1.6110 V 8
O9 Si5 1_0_0_0 8_-1_0_0 1.6090 V 8
O10 Si3 1_0_0_0 1_0_0_0 1.6100 V 8
O11 Si1 1_0_0_0 1_0_0_-1 1.6100 V 8
O12 Si5 1_0_0_0 1_-1_0_0 1.6090 V 8
O13 Si1 1_0_0_0 1_0_0_0 1.6120 V 8
Lr2 Lr2 1_0_0_0 1_0_0_-1 7.2490 V 2
#End of data_149-TOPOS_MTF-PPT1

data_150-TOPOS_MTN-PPT1
_audit_creation_date                2025-02-23
_audit_creation_method              ToposPro
_chemical_formula_structural        MTN-PPT1
_chemical_formula_sum               'Lr3 O34 Si17'
_citation_special_details
;
Space Group: FD-3M->F d -3 m. File: MTN-PPT1.cif. 
;
_cell_length_a                      19.933
_cell_length_b                      19.933
_cell_length_c                      19.933
_cell_angle_alpha                   90
_cell_angle_beta                    90
_cell_angle_gamma                   90
_cell_volume                        7919.87
_cell_formula_units_Z               8
_symmetry_space_group_name_H-M      'F d -3 m'
_symmetry_Int_Tables_number         227
_refine_ls_R_factor_all             0
loop_
_symmetry_equiv_pos_site_id
_symmetry_equiv_pos_as_xyz
1 x,y,z
2 -x,-y,z
3 x,-y,-z
4 -x,y,-z
5 z,x,y
6 y,z,x
7 -z,-x,y
8 -y,z,-x
9 z,-x,-y
10 -y,-z,x
11 -z,x,-y
12 y,-z,-x
13 1/4-y,1/4-x,1/4-z
14 1/4+y,1/4+x,1/4-z
15 1/4+y,1/4-x,1/4+z
16 1/4-y,1/4+x,1/4+z
17 1/4-x,1/4-z,1/4-y
18 1/4-z,1/4-y,1/4-x
19 1/4+x,1/4+z,1/4-y
20 1/4-z,1/4+y,1/4+x
21 1/4+x,1/4-z,1/4+y
22 1/4+z,1/4+y,1/4-x
23 1/4-x,1/4+z,1/4+y
24 1/4+z,1/4-y,1/4+x
25 1/4-x,1/4-y,1/4-z
26 1/4+x,1/4+y,1/4-z
27 1/4-x,1/4+y,1/4+z
28 1/4+x,1/4-y,1/4+z
29 1/4-z,1/4-x,1/4-y
30 1/4-y,1/4-z,1/4-x
31 1/4+z,1/4+x,1/4-y
32 1/4+y,1/4-z,1/4+x
33 1/4-z,1/4+x,1/4+y
34 1/4+y,1/4+z,1/4-x
35 1/4+z,1/4-x,1/4+y
36 1/4-y,1/4+z,1/4+x
37 y,x,z
38 -y,-x,z
39 -y,x,-z
40 y,-x,-z
41 x,z,y
42 z,y,x
43 -x,-z,y
44 z,-y,-x
45 -x,z,-y
46 -z,-y,x
47 x,-z,-y
48 -z,y,-x
49 x,1/2+y,1/2+z
50 1/2+x,y,1/2+z
51 1/2+x,1/2+y,z
52 -x,1/2-y,1/2+z
53 1/2-x,-y,1/2+z
54 1/2-x,1/2-y,z
55 x,1/2-y,1/2-z
56 1/2+x,-y,1/2-z
57 1/2+x,1/2-y,-z
58 -x,1/2+y,1/2-z
59 1/2-x,y,1/2-z
60 1/2-x,1/2+y,-z
61 z,1/2+x,1/2+y
62 1/2+z,x,1/2+y
63 1/2+z,1/2+x,y
64 y,1/2+z,1/2+x
65 1/2+y,z,1/2+x
66 1/2+y,1/2+z,x
67 -z,1/2-x,1/2+y
68 1/2-z,-x,1/2+y
69 1/2-z,1/2-x,y
70 -y,1/2+z,1/2-x
71 1/2-y,z,1/2-x
72 1/2-y,1/2+z,-x
73 z,1/2-x,1/2-y
74 1/2+z,-x,1/2-y
75 1/2+z,1/2-x,-y
76 -y,1/2-z,1/2+x
77 1/2-y,-z,1/2+x
78 1/2-y,1/2-z,x
79 -z,1/2+x,1/2-y
80 1/2-z,x,1/2-y
81 1/2-z,1/2+x,-y
82 y,1/2-z,1/2-x
83 1/2+y,-z,1/2-x
84 1/2+y,1/2-z,-x
85 1/4-y,3/4-x,3/4-z
86 3/4-y,1/4-x,3/4-z
87 3/4-y,3/4-x,1/4-z
88 1/4+y,3/4+x,3/4-z
89 3/4+y,1/4+x,3/4-z
90 3/4+y,3/4+x,1/4-z
91 1/4+y,3/4-x,3/4+z
92 3/4+y,1/4-x,3/4+z
93 3/4+y,3/4-x,1/4+z
94 1/4-y,3/4+x,3/4+z
95 3/4-y,1/4+x,3/4+z
96 3/4-y,3/4+x,1/4+z
97 1/4-x,3/4-z,3/4-y
98 3/4-x,1/4-z,3/4-y
99 3/4-x,3/4-z,1/4-y
100 1/4-z,3/4-y,3/4-x
101 3/4-z,1/4-y,3/4-x
102 3/4-z,3/4-y,1/4-x
103 1/4+x,3/4+z,3/4-y
104 3/4+x,1/4+z,3/4-y
105 3/4+x,3/4+z,1/4-y
106 1/4-z,3/4+y,3/4+x
107 3/4-z,1/4+y,3/4+x
108 3/4-z,3/4+y,1/4+x
109 1/4+x,3/4-z,3/4+y
110 3/4+x,1/4-z,3/4+y
111 3/4+x,3/4-z,1/4+y
112 1/4+z,3/4+y,3/4-x
113 3/4+z,1/4+y,3/4-x
114 3/4+z,3/4+y,1/4-x
115 1/4-x,3/4+z,3/4+y
116 3/4-x,1/4+z,3/4+y
117 3/4-x,3/4+z,1/4+y
118 1/4+z,3/4-y,3/4+x
119 3/4+z,1/4-y,3/4+x
120 3/4+z,3/4-y,1/4+x
121 1/4-x,3/4-y,3/4-z
122 3/4-x,1/4-y,3/4-z
123 3/4-x,3/4-y,1/4-z
124 1/4+x,3/4+y,3/4-z
125 3/4+x,1/4+y,3/4-z
126 3/4+x,3/4+y,1/4-z
127 1/4-x,3/4+y,3/4+z
128 3/4-x,1/4+y,3/4+z
129 3/4-x,3/4+y,1/4+z
130 1/4+x,3/4-y,3/4+z
131 3/4+x,1/4-y,3/4+z
132 3/4+x,3/4-y,1/4+z
133 1/4-z,3/4-x,3/4-y
134 3/4-z,1/4-x,3/4-y
135 3/4-z,3/4-x,1/4-y
136 1/4-y,3/4-z,3/4-x
137 3/4-y,1/4-z,3/4-x
138 3/4-y,3/4-z,1/4-x
139 1/4+z,3/4+x,3/4-y
140 3/4+z,1/4+x,3/4-y
141 3/4+z,3/4+x,1/4-y
142 1/4+y,3/4-z,3/4+x
143 3/4+y,1/4-z,3/4+x
144 3/4+y,3/4-z,1/4+x
145 1/4-z,3/4+x,3/4+y
146 3/4-z,1/4+x,3/4+y
147 3/4-z,3/4+x,1/4+y
148 1/4+y,3/4+z,3/4-x
149 3/4+y,1/4+z,3/4-x
150 3/4+y,3/4+z,1/4-x
151 1/4+z,3/4-x,3/4+y
152 3/4+z,1/4-x,3/4+y
153 3/4+z,3/4-x,1/4+y
154 1/4-y,3/4+z,3/4+x
155 3/4-y,1/4+z,3/4+x
156 3/4-y,3/4+z,1/4+x
157 y,1/2+x,1/2+z
158 1/2+y,x,1/2+z
159 1/2+y,1/2+x,z
160 -y,1/2-x,1/2+z
161 1/2-y,-x,1/2+z
162 1/2-y,1/2-x,z
163 -y,1/2+x,1/2-z
164 1/2-y,x,1/2-z
165 1/2-y,1/2+x,-z
166 y,1/2-x,1/2-z
167 1/2+y,-x,1/2-z
168 1/2+y,1/2-x,-z
169 x,1/2+z,1/2+y
170 1/2+x,z,1/2+y
171 1/2+x,1/2+z,y
172 z,1/2+y,1/2+x
173 1/2+z,y,1/2+x
174 1/2+z,1/2+y,x
175 -x,1/2-z,1/2+y
176 1/2-x,-z,1/2+y
177 1/2-x,1/2-z,y
178 z,1/2-y,1/2-x
179 1/2+z,-y,1/2-x
180 1/2+z,1/2-y,-x
181 -x,1/2+z,1/2-y
182 1/2-x,z,1/2-y
183 1/2-x,1/2+z,-y
184 -z,1/2-y,1/2+x
185 1/2-z,-y,1/2+x
186 1/2-z,1/2-y,x
187 x,1/2-z,1/2-y
188 1/2+x,-z,1/2-y
189 1/2+x,1/2-z,-y
190 -z,1/2+y,1/2-x
191 1/2-z,y,1/2-x
192 1/2-z,1/2+y,-x
loop_
_atom_site_label
_atom_site_type_symbol
_atom_site_symmetry_multiplicity
_atom_site_fract_x
_atom_site_fract_y
_atom_site_fract_z
_atom_site_occupancy
O1 O 96 0.17350 0.17350 0.42020 1.0000
O2 O 96 0.21810 0.12500 0.53190 1.0000
O3 O 48 0.25000 0.25000 0.49710 1.0000
O4 O 32 0.29660 0.29660 0.29660 1.0000
Si1 Si 96 0.19300 0.19300 0.49620 1.0000
Si2 Si 32 0.34310 0.34310 0.34310 1.0000
Si3 Si 8 0.25000 0.25000 0.25000 1.0000
Lr1 Lr 16 0.37500 0.12500 0.37500 1.0000
Lr2 Lr 8 0.25000 0.25000 0.75000 1.0000
loop_
_topos_bond_atom_site_label_1
_topos_bond_atom_site_label_2
_topos_bond_site_symmetry_1
_topos_bond_site_symmetry_2
_topos_bond_distance
_topos_bond_type
_topos_bond_multiplicity
O1 Si1 1_0_0_0 1_0_0_0 1.6120 V 96
O1 Si2 1_0_0_0 54_0_0_0 1.6060 V 96
O2 Si1 1_0_0_0 1_0_0_0 1.6110 V 192
O3 Si1 1_0_0_0 1_0_0_0 1.6070 V 96
O4 Si2 1_0_0_0 1_0_0_0 1.6050 V 32
O4 Si3 1_0_0_0 1_0_0_0 1.6090 V 32
#End of data_150-TOPOS_MTN-PPT1

data_151-TOPOS_MTT-PPT1
_audit_creation_date                2025-02-23
_audit_creation_method              ToposPro
_chemical_formula_structural        MTT-PPT1
_chemical_formula_sum               'Lr2 O6 Si3'
_citation_special_details
;
Space Group: PMMN->P m m n. File: MTT-PPT1.cif. 
;
_cell_length_a                      5.256
_cell_length_b                      22.031
_cell_length_c                      11.384
_cell_angle_alpha                   90
_cell_angle_beta                    90
_cell_angle_gamma                   90
_cell_volume                        1318.21
_cell_formula_units_Z               8
_symmetry_space_group_name_H-M      'P m m n'
_symmetry_Int_Tables_number         59
_refine_ls_R_factor_all             0
loop_
_symmetry_equiv_pos_site_id
_symmetry_equiv_pos_as_xyz
1 x,y,z
2 -x,-y,z
3 1/2+x,1/2-y,-z
4 1/2-x,1/2+y,-z
5 1/2-x,1/2-y,-z
6 1/2+x,1/2+y,-z
7 -x,y,z
8 x,-y,z
loop_
_atom_site_label
_atom_site_type_symbol
_atom_site_symmetry_multiplicity
_atom_site_fract_x
_atom_site_fract_y
_atom_site_fract_z
_atom_site_occupancy
O1 O 8 0.75000 0.13850 0.67750 1.0000
O2 O 8 0.75000 0.15610 0.29380 1.0000
O3 O 4 0.00000 0.17390 0.86510 1.0000
O4 O 4 0.00000 0.15870 0.09380 1.0000
O5 O 4 0.00000 0.24180 0.67500 1.0000
O6 O 4 0.00000 0.05970 0.22250 1.0000
O7 O 4 0.75000 0.25000 0.00000 1.0000
O8 O 4 0.50000 0.17510 0.49030 1.0000
O9 O 4 0.50000 0.05960 0.54880 1.0000
O10 O 4 0.25000 0.00000 0.38560 1.0000
Si1 Si 4 0.00000 0.20830 0.98990 1.0000
Si2 Si 4 0.00000 0.17330 0.72370 1.0000
Si3 Si 4 0.00000 0.13280 0.22590 1.0000
Si4 Si 4 0.50000 0.18640 0.35060 1.0000
Si5 Si 4 0.50000 0.12800 0.59840 1.0000
Si6 Si 2 0.50000 0.00000 0.46710 1.0000
Si7 Si 2 0.00000 0.00000 0.30410 1.0000
Lr1 Lr 4 0.00000 0.25808 0.21016 1.0000
Lr2 Lr 4 0.00000 0.10388 0.45399 1.0000
Lr3 Lr 4 0.50000 0.27261 0.55488 1.0000
Lr4 Lr 2 0.50000 0.00000 0.07569 1.0000
Lr5 Lr 2 0.00000 0.00000 0.77250 1.0000
loop_
_topos_bond_atom_site_label_1
_topos_bond_atom_site_label_2
_topos_bond_site_symmetry_1
_topos_bond_site_symmetry_2
_topos_bond_distance
_topos_bond_type
_topos_bond_multiplicity
O1 Si5 1_0_0_0 1_0_0_0 1.6100 V 8
O1 Si2 1_0_0_0 1_1_0_0 1.6100 V 8
O2 Si4 1_0_0_0 1_0_0_0 1.6090 V 8
O2 Si3 1_0_0_0 1_1_0_0 1.6090 V 8
O3 Si2 1_0_0_0 1_0_0_0 1.6100 V 4
O3 Si1 1_0_0_0 1_0_0_0 1.6100 V 4
O4 Si3 1_0_0_0 1_0_0_0 1.6080 V 4
O4 Si1 1_0_0_0 1_0_0_-1 1.6100 V 4
O5 Si2 1_0_0_0 1_0_0_0 1.6080 V 4
O5 Si4 1_0_0_0 3_-1_0_1 1.6080 V 4
O6 Si7 1_0_0_0 1_0_0_0 1.6100 V 4
O6 Si3 1_0_0_0 1_0_0_0 1.6110 V 4
O7 Si1 1_0_0_0 3_0_0_1 1.6070 V 8
O8 Si5 1_0_0_0 1_0_0_0 1.6100 V 4
O8 Si4 1_0_0_0 1_0_0_0 1.6100 V 4
O9 Si6 1_0_0_0 1_0_0_0 1.6090 V 4
O9 Si5 1_0_0_0 1_0_0_0 1.6090 V 4
O10 Si7 1_0_0_0 1_0_0_0 1.6090 V 4
O10 Si6 1_0_0_0 1_0_0_0 1.6090 V 4
Lr1 Lr3 1_0_0_0 3_-1_0_1 2.7590 V 4
Lr2 Lr3 1_0_0_0 3_-1_0_1 2.7230 V 4
Lr4 Lr5 1_0_0_0 1_1_0_-1 4.3380 V 4
#End of data_151-TOPOS_MTT-PPT1

data_152-TOPOS_MTW-PPT1
_audit_creation_date                2025-02-23
_audit_creation_method              ToposPro
_chemical_formula_structural        MTW-PPT1
_chemical_formula_sum               'Lr9 O28 Si14'
_citation_special_details
;
Space Group: C2/M->C 2/m. File: MTW-PPT1.cif. 
;
_cell_length_a                      25.552
_cell_length_b                      5.256
_cell_length_c                      12.117
_cell_angle_alpha                   90
_cell_angle_beta                    109.312
_cell_angle_gamma                   90
_cell_volume                        1535.762
_cell_formula_units_Z               2
_symmetry_space_group_name_H-M      'C 2/m'
_symmetry_Int_Tables_number         12
_refine_ls_R_factor_all             0
loop_
_symmetry_equiv_pos_site_id
_symmetry_equiv_pos_as_xyz
1 x,y,z
2 -x,y,-z
3 -x,-y,-z
4 x,-y,z
5 1/2+x,1/2+y,z
6 1/2-x,1/2+y,-z
7 1/2-x,1/2-y,-z
8 1/2+x,1/2-y,z
loop_
_atom_site_label
_atom_site_type_symbol
_atom_site_symmetry_multiplicity
_atom_site_fract_x
_atom_site_fract_y
_atom_site_fract_z
_atom_site_occupancy
O1 O 8 0.09580 0.75010 0.24210 1.0000
O2 O 8 0.08260 0.25000 0.85760 1.0000
O3 O 8 0.25080 0.74990 0.85150 1.0000
O4 O 4 0.00450 0.00000 0.13130 1.0000
O5 O 4 0.08760 0.00000 0.04900 1.0000
O6 O 4 0.34400 0.00000 0.57100 1.0000
O7 O 4 0.31530 0.00000 0.75950 1.0000
O8 O 4 0.34340 0.00000 0.20790 1.0000
O9 O 4 0.33740 0.00000 0.98700 1.0000
O10 O 4 0.28380 0.00000 0.34780 1.0000
O11 O 4 0.25000 0.75000 0.50000 1.0000
Si1 Si 4 0.07100 0.00000 0.16600 1.0000
Si2 Si 4 0.06210 0.00000 0.90830 1.0000
Si3 Si 4 0.36710 0.00000 0.71190 1.0000
Si4 Si 4 0.37890 0.00000 0.11990 1.0000
Si5 Si 4 0.28850 0.00000 0.86250 1.0000
Si6 Si 4 0.28130 0.00000 0.21340 1.0000
Si7 Si 4 0.28180 0.00000 0.47910 1.0000
Lr1 Lr 4 0.14949 0.00000 0.09990 1.0000
Lr2 Lr 4 0.21134 0.00000 0.97125 1.0000
Lr3 Lr 2 0.00000 0.50000 0.00000 1.0000
Lr4 Lr 4 0.30452 0.50000 0.69428 1.0000
Lr5 Lr 2 0.00000 0.00000 0.50000 1.0000
Lr6 Lr 2 0.00000 0.50000 0.50000 1.0000
loop_
_topos_bond_atom_site_label_1
_topos_bond_atom_site_label_2
_topos_bond_site_symmetry_1
_topos_bond_site_symmetry_2
_topos_bond_distance
_topos_bond_type
_topos_bond_multiplicity
O1 Si3 1_0_0_0 6_0_0_1 1.6090 V 8
O1 Si1 1_0_0_0 1_0_1_0 1.6100 V 8
O2 Si2 1_0_0_0 1_0_0_0 1.6100 V 8
O2 Si4 1_0_0_0 6_0_0_1 1.6100 V 8
O3 Si5 1_0_0_0 1_0_1_0 1.6090 V 8
O3 Si6 1_0_0_0 6_0_0_1 1.6090 V 8
O4 Si1 1_0_0_0 1_0_0_0 1.6100 V 4
O4 Si2 1_0_0_0 2_0_0_1 1.6080 V 4
O5 Si1 1_0_0_0 1_0_0_0 1.6090 V 4
O5 Si2 1_0_0_0 1_0_0_-1 1.6110 V 4
O6 Si7 1_0_0_0 1_0_0_0 1.6110 V 4
O6 Si3 1_0_0_0 1_0_0_0 1.6110 V 4
O7 Si3 1_0_0_0 1_0_0_0 1.6090 V 4
O7 Si5 1_0_0_0 1_0_0_0 1.6100 V 4
O8 Si6 1_0_0_0 1_0_0_0 1.6100 V 4
O8 Si4 1_0_0_0 1_0_0_0 1.6120 V 4
O9 Si5 1_0_0_0 1_0_0_0 1.6090 V 4
O9 Si4 1_0_0_0 1_0_0_1 1.6090 V 4
O10 Si6 1_0_0_0 1_0_0_0 1.6090 V 4
O10 Si7 1_0_0_0 1_0_0_0 1.6090 V 4
O11 Si7 1_0_0_0 1_0_1_0 1.6080 V 8
Lr1 Lr4 1_0_0_0 6_0_-1_1 2.3800 V 4
Lr1 Lr2 1_0_0_0 1_0_0_-1 2.5610 V 4
Lr5 Lr6 1_0_0_0 1_0_0_0 2.6280 V 4
#End of data_152-TOPOS_MTW-PPT1

data_153-TOPOS_MVY-NT
_audit_creation_date                2025-02-23
_audit_creation_method              ToposPro
_chemical_formula_structural        MVY-NT
_chemical_formula_sum               'Lr4 O6 Si3'
_citation_special_details
;
Space Group: PNNM->P n n m. File: MVY-NT.cif. 
;
_cell_length_a                      5.021
_cell_length_b                      8.151
_cell_length_c                      13.977
_cell_angle_alpha                   90
_cell_angle_beta                    90
_cell_angle_gamma                   90
_cell_volume                        572.0251
_cell_formula_units_Z               4
_symmetry_space_group_name_H-M      'P n n m'
_symmetry_Int_Tables_number         58
_refine_ls_R_factor_all             0
loop_
_symmetry_equiv_pos_site_id
_symmetry_equiv_pos_as_xyz
1 x,y,z
2 -x,-y,z
3 1/2+x,1/2-y,1/2-z
4 1/2-x,1/2+y,1/2-z
5 -x,-y,-z
6 x,y,-z
7 1/2-x,1/2+y,1/2+z
8 1/2+x,1/2-y,1/2+z
loop_
_atom_site_label
_atom_site_type_symbol
_atom_site_symmetry_multiplicity
_atom_site_fract_x
_atom_site_fract_y
_atom_site_fract_z
_atom_site_occupancy
O1 O 8 0.13700 0.29980 0.77130 1.0000
O2 O 8 0.27770 0.26760 0.59520 1.0000
O3 O 4 0.50000 0.50000 0.69810 1.0000
O4 O 2 0.00000 0.00000 0.00000 1.0000
O5 O 2 0.50000 0.00000 0.00000 1.0000
Si1 Si 8 0.38820 0.31510 0.70000 1.0000
Si2 Si 4 0.25010 0.87720 0.00000 1.0000
Lr1 Lr 8 0.78947 0.41103 0.62857 1.0000
Lr2 Lr 4 0.00000 0.50000 0.67500 1.0000
Lr3 Lr 2 0.00000 0.50000 0.00000 1.0000
Lr4 Lr 2 0.00000 0.00000 0.50000 1.0000
loop_
_topos_bond_atom_site_label_1
_topos_bond_atom_site_label_2
_topos_bond_site_symmetry_1
_topos_bond_site_symmetry_2
_topos_bond_distance
_topos_bond_type
_topos_bond_multiplicity
O1 Si1 1_0_0_0 1_0_0_0 1.6120 V 8
O1 Si1 1_0_0_0 3_-1_0_1 1.6120 V 8
O2 Si1 1_0_0_0 1_0_0_0 1.6130 V 8
O2 Si2 1_0_0_0 4_0_-1_0 1.6090 V 8
O3 Si1 1_0_0_0 1_0_0_0 1.6080 V 8
O4 Si2 1_0_0_0 2_0_1_0 1.6060 V 4
O5 Si2 1_0_0_0 2_1_1_0 1.6050 V 4
Lr1 Lr2 1_0_0_0 1_1_0_0 1.4370 V 8
Lr3 Lr4 1_0_0_0 3_0_0_0 2.5100 V 4
#End of data_153-TOPOS_MVY-NT

data_154-TOPOS_MWF-PPT1
_audit_creation_date                2025-02-23
_audit_creation_method              ToposPro
_chemical_formula_structural        MWF-PPT1
_chemical_formula_sum               'Lr43 O360 Si180'
_citation_special_details
;
Space Group: IM-3M->I m -3 m. File: MWF-PPT1.cif. 
;
_cell_length_a                      44.7444
_cell_length_b                      44.7444
_cell_length_c                      44.7444
_cell_angle_alpha                   90
_cell_angle_beta                    90
_cell_angle_gamma                   90
_cell_volume                        89581.03
_cell_formula_units_Z               8
_symmetry_space_group_name_H-M      'I m -3 m'
_symmetry_Int_Tables_number         229
_refine_ls_R_factor_all             0
loop_
_symmetry_equiv_pos_site_id
_symmetry_equiv_pos_as_xyz
1 x,y,z
2 -x,-y,z
3 x,-y,-z
4 -x,y,-z
5 z,x,y
6 y,z,x
7 -z,-x,y
8 -y,z,-x
9 z,-x,-y
10 -y,-z,x
11 -z,x,-y
12 y,-z,-x
13 -y,-x,-z
14 y,x,-z
15 y,-x,z
16 -y,x,z
17 -x,-z,-y
18 -z,-y,-x
19 x,z,-y
20 -z,y,x
21 x,-z,y
22 z,y,-x
23 -x,z,y
24 z,-y,x
25 -x,-y,-z
26 x,y,-z
27 -x,y,z
28 x,-y,z
29 -z,-x,-y
30 -y,-z,-x
31 z,x,-y
32 y,-z,x
33 -z,x,y
34 y,z,-x
35 z,-x,y
36 -y,z,x
37 y,x,z
38 -y,-x,z
39 -y,x,-z
40 y,-x,-z
41 x,z,y
42 z,y,x
43 -x,-z,y
44 z,-y,-x
45 -x,z,-y
46 -z,-y,x
47 x,-z,-y
48 -z,y,-x
49 1/2+x,1/2+y,1/2+z
50 1/2-x,1/2-y,1/2+z
51 1/2+x,1/2-y,1/2-z
52 1/2-x,1/2+y,1/2-z
53 1/2+z,1/2+x,1/2+y
54 1/2+y,1/2+z,1/2+x
55 1/2-z,1/2-x,1/2+y
56 1/2-y,1/2+z,1/2-x
57 1/2+z,1/2-x,1/2-y
58 1/2-y,1/2-z,1/2+x
59 1/2-z,1/2+x,1/2-y
60 1/2+y,1/2-z,1/2-x
61 1/2-y,1/2-x,1/2-z
62 1/2+y,1/2+x,1/2-z
63 1/2+y,1/2-x,1/2+z
64 1/2-y,1/2+x,1/2+z
65 1/2-x,1/2-z,1/2-y
66 1/2-z,1/2-y,1/2-x
67 1/2+x,1/2+z,1/2-y
68 1/2-z,1/2+y,1/2+x
69 1/2+x,1/2-z,1/2+y
70 1/2+z,1/2+y,1/2-x
71 1/2-x,1/2+z,1/2+y
72 1/2+z,1/2-y,1/2+x
73 1/2-x,1/2-y,1/2-z
74 1/2+x,1/2+y,1/2-z
75 1/2-x,1/2+y,1/2+z
76 1/2+x,1/2-y,1/2+z
77 1/2-z,1/2-x,1/2-y
78 1/2-y,1/2-z,1/2-x
79 1/2+z,1/2+x,1/2-y
80 1/2+y,1/2-z,1/2+x
81 1/2-z,1/2+x,1/2+y
82 1/2+y,1/2+z,1/2-x
83 1/2+z,1/2-x,1/2+y
84 1/2-y,1/2+z,1/2+x
85 1/2+y,1/2+x,1/2+z
86 1/2-y,1/2-x,1/2+z
87 1/2-y,1/2+x,1/2-z
88 1/2+y,1/2-x,1/2-z
89 1/2+x,1/2+z,1/2+y
90 1/2+z,1/2+y,1/2+x
91 1/2-x,1/2-z,1/2+y
92 1/2+z,1/2-y,1/2-x
93 1/2-x,1/2+z,1/2-y
94 1/2-z,1/2-y,1/2+x
95 1/2+x,1/2-z,1/2-y
96 1/2-z,1/2+y,1/2-x
loop_
_atom_site_label
_atom_site_type_symbol
_atom_site_symmetry_multiplicity
_atom_site_fract_x
_atom_site_fract_y
_atom_site_fract_z
_atom_site_occupancy
O1 O 96 0.83231 0.61051 0.54423 1.0000
O2 O 96 0.77749 0.63087 0.53913 1.0000
O3 O 96 0.72235 0.61108 0.54373 1.0000
O4 O 96 0.66667 0.59229 0.53953 1.0000
O5 O 96 0.11160 0.59332 0.53948 1.0000
O6 O 96 0.55557 0.11048 0.04460 1.0000
O7 O 96 0.68586 0.61074 0.81805 1.0000
O8 O 96 0.70280 0.77802 0.65052 1.0000
O9 O 96 0.73819 0.68553 0.61112 1.0000
O10 O 96 0.77804 0.57142 0.70308 1.0000
O11 O 96 0.33314 0.55514 0.17875 1.0000
O12 O 96 0.33278 0.55534 0.26574 1.0000
O13 O 96 0.93244 0.77717 0.66667 1.0000
O14 O 96 0.94502 0.83357 0.45804 1.0000
O15 O 96 0.77818 0.93259 0.44384 1.0000
O16 O 96 0.77804 0.66667 0.84558 1.0000
O17 O 96 0.74124 0.11125 0.34909 1.0000
O18 O 96 0.61122 0.07126 0.24193 1.0000
O19 O 96 0.88957 0.53916 0.18570 1.0000
O20 O 96 0.34572 0.27894 0.05611 1.0000
O21 O 48 0.81847 0.35327 0.50000 1.0000
O22 O 48 0.92920 0.79553 0.50000 1.0000
O23 O 48 0.84859 0.57547 0.50000 1.0000
O24 O 48 0.73689 0.64760 0.50000 1.0000
O25 O 48 0.70674 0.57508 0.50000 1.0000
O26 O 48 0.62679 0.57503 0.50000 1.0000
O27 O 48 0.57164 0.07580 0.00000 1.0000
O28 O 48 0.54076 0.14581 0.00000 1.0000
O29 O 48 0.84955 0.50000 0.20359 1.0000
O30 O 48 0.57003 0.05449 0.05449 1.0000
O31 O 48 0.84673 0.55462 0.55462 1.0000
O32 O 48 0.70947 0.55496 0.55496 1.0000
O33 O 48 0.62392 0.55516 0.55516 1.0000
O34 O 48 0.73455 0.66667 0.66667 1.0000
O35 O 48 0.33481 0.33481 0.04201 1.0000
O36 O 48 0.66573 0.66573 0.82102 1.0000
O37 O 48 0.72322 0.72322 0.56855 1.0000
O38 O 48 0.61135 0.61135 0.54355 1.0000
O39 O 48 0.72285 0.65386 0.72285 1.0000
O40 O 48 0.50000 0.12853 0.03876 1.0000
Si1 Si 96 0.85411 0.58357 0.53460 1.0000
Si2 Si 96 0.81228 0.63878 0.53453 1.0000
Si3 Si 96 0.74280 0.63919 0.53447 1.0000
Si4 Si 96 0.70125 0.58342 0.53455 1.0000
Si5 Si 96 0.63222 0.58346 0.53455 1.0000
Si6 Si 96 0.57731 0.08359 0.03465 1.0000
Si7 Si 96 0.53449 0.13783 0.03451 1.0000
Si8 Si 96 0.69412 0.64532 0.81254 1.0000
Si9 Si 96 0.74348 0.57672 0.69464 1.0000
Si10 Si 96 0.69447 0.64559 0.74336 1.0000
Si11 Si 96 0.69467 0.81268 0.57627 1.0000
Si12 Si 96 0.96574 0.69400 0.64509 1.0000
Si13 Si 96 0.92407 0.80538 0.53422 1.0000
Si14 Si 96 0.92341 0.35428 0.74937 1.0000
Si15 Si 48 0.75000 0.35424 0.14576 1.0000
Si16 Si 48 0.75000 0.42343 0.07657 1.0000
Lr1 Lr 48 0.88897 0.69451 0.50000 1.0000
Lr2 Lr 48 0.88889 0.63528 0.63528 1.0000
Lr3 Lr 48 0.77781 0.61281 0.61281 1.0000
Lr4 Lr 48 0.77629 0.61100 0.77629 1.0000
Lr5 Lr 12 0.88840 0.50000 0.50000 1.0000
Lr6 Lr 12 0.77761 0.50000 0.50000 1.0000
Lr7 Lr 12 0.66667 0.50000 0.50000 1.0000
Lr8 Lr 24 0.75370 0.75370 0.50000 1.0000
Lr9 Lr 24 0.66506 0.66506 0.50000 1.0000
Lr10 Lr 16 0.63894 0.63894 0.63894 1.0000
Lr11 Lr 2 0.50000 0.50000 0.50000 1.0000
Lr12 Lr 6 0.50000 0.00000 0.00000 1.0000
Lr13 Lr 12 0.50000 0.25000 0.00000 1.0000
Lr14 Lr 24 0.50000 0.11253 0.11253 1.0000
Lr15 Lr 8 0.75000 0.75000 0.75000 1.0000
loop_
_topos_bond_atom_site_label_1
_topos_bond_atom_site_label_2
_topos_bond_site_symmetry_1
_topos_bond_site_symmetry_2
_topos_bond_distance
_topos_bond_type
_topos_bond_multiplicity
O1 Si1 1_0_0_0 1_0_0_0 1.6090 V 96
O1 Si2 1_0_0_0 1_0_0_0 1.6100 V 96
O2 Si2 1_0_0_0 1_0_0_0 1.6100 V 96
O2 Si3 1_0_0_0 1_0_0_0 1.6100 V 96
O3 Si3 1_0_0_0 1_0_0_0 1.6100 V 96
O3 Si4 1_0_0_0 1_0_0_0 1.6100 V 96
O4 Si5 1_0_0_0 1_0_0_0 1.6070 V 96
O4 Si4 1_0_0_0 1_0_0_0 1.6130 V 96
O5 Si6 1_0_0_0 49_-1_0_0 1.6090 V 96
O5 Si1 1_0_0_0 27_1_0_0 1.6100 V 96
O6 Si7 1_0_0_0 1_0_0_0 1.6100 V 96
O6 Si6 1_0_0_0 1_0_0_0 1.6100 V 96
O7 Si8 1_0_0_0 1_0_0_0 1.6100 V 96
O7 Si11 1_0_0_0 41_0_0_0 1.6100 V 96
O8 Si8 1_0_0_0 41_0_0_0 1.6100 V 96
O8 Si10 1_0_0_0 41_0_0_0 1.6100 V 96
O9 Si9 1_0_0_0 41_0_0_0 1.6100 V 96
O9 Si10 1_0_0_0 5_0_0_0 1.6100 V 96
O10 Si9 1_0_0_0 1_0_0_0 1.6090 V 96
O10 Si11 1_0_0_0 6_0_0_0 1.6100 V 96
O11 Si11 1_0_0_0 45_1_0_1 1.6090 V 96
O11 Si2 1_0_0_0 8_1_0_1 1.6090 V 96
O12 Si9 1_0_0_0 48_1_0_1 1.6100 V 96
O12 Si3 1_0_0_0 8_1_0_1 1.6100 V 96
O13 Si11 1_0_0_0 77_1_1_1 1.6100 V 96
O13 Si14 1_0_0_0 19_0_0_1 1.6090 V 96
O14 Si7 1_0_0_0 18_1_1_1 1.6090 V 96
O14 Si13 1_0_0_0 26_0_0_1 1.6090 V 96
O15 Si13 1_0_0_0 14_0_0_1 1.6090 V 96
O15 Si16 1_0_0_0 21_0_1_0 1.6100 V 96
O16 Si8 1_0_0_0 65_1_1_1 1.6070 V 96
O16 Si15 1_0_0_0 3_0_1_1 1.6120 V 96
O17 Si15 1_0_0_0 41_0_0_0 1.6100 V 96
O17 Si14 1_0_0_0 35_0_1_0 1.6100 V 96
O18 Si16 1_0_0_0 8_1_0_1 1.6100 V 96
O18 Si14 1_0_0_0 13_1_1_1 1.6100 V 96
O19 Si12 1_0_0_0 55_1_1_-1 1.6100 V 96
O19 Si13 1_0_0_0 19_0_0_1 1.6100 V 96
O20 Si12 1_0_0_0 18_1_1_1 1.6100 V 96
O20 Si14 1_0_0_0 12_0_1_1 1.6100 V 96
O21 Si2 1_0_0_0 3_0_1_1 1.6090 V 96
O22 Si13 1_0_0_0 1_0_0_0 1.6100 V 96
O23 Si1 1_0_0_0 1_0_0_0 1.6090 V 96
O24 Si3 1_0_0_0 1_0_0_0 1.6090 V 96
O25 Si4 1_0_0_0 1_0_0_0 1.6090 V 96
O26 Si5 1_0_0_0 1_0_0_0 1.6100 V 96
O27 Si6 1_0_0_0 1_0_0_0 1.6090 V 96
O28 Si7 1_0_0_0 1_0_0_0 1.6100 V 96
O29 Si12 1_0_0_0 55_1_1_-1 1.6100 V 96
O30 Si6 1_0_0_0 1_0_0_0 1.6090 V 96
O31 Si1 1_0_0_0 1_0_0_0 1.6090 V 96
O32 Si4 1_0_0_0 1_0_0_0 1.6100 V 96
O33 Si5 1_0_0_0 1_0_0_0 1.6100 V 96
O34 Si10 1_0_0_0 5_0_0_0 1.6100 V 96
O35 Si12 1_0_0_0 18_1_1_1 1.6100 V 96
O36 Si8 1_0_0_0 1_0_0_0 1.6100 V 96
O37 Si9 1_0_0_0 5_0_0_0 1.6100 V 96
O38 Si5 1_0_0_0 1_0_0_0 1.6100 V 96
O39 Si10 1_0_0_0 1_0_0_0 1.6100 V 96
O40 Si7 1_0_0_0 1_0_0_0 1.6100 V 96
Lr1 Lr2 1_0_0_0 1_0_0_0 6.6080 V 96
Lr1 Lr8 1_0_0_0 1_0_0_0 6.6070 V 48
Lr1 Lr13 1_0_0_0 18_1_1_1 5.5540 V 48
Lr2 Lr3 1_0_0_0 1_0_0_0 5.1700 V 48
Lr2 Lr14 1_0_0_0 49_0_0_0 5.1760 V 48
Lr2 Lr4 1_0_0_0 61_1_1_1 5.5960 V 48
Lr3 Lr10 1_0_0_0 1_0_0_0 6.4300 V 48
Lr3 Lr6 1_0_0_0 1_0_0_0 7.1380 V 48
Lr4 Lr8 1_0_0_0 6_0_0_0 5.1680 V 48
Lr4 Lr15 1_0_0_0 1_0_0_0 6.4380 V 48
Lr5 Lr6 1_0_0_0 1_0_0_0 4.9570 V 12
Lr5 Lr12 1_0_0_0 49_0_0_0 4.9930 V 12
Lr6 Lr7 1_0_0_0 1_0_0_0 4.9640 V 12
Lr7 Lr11 1_0_0_0 1_0_0_0 7.4570 V 12
Lr8 Lr9 1_0_0_0 1_0_0_0 5.6090 V 24
Lr9 Lr10 1_0_0_0 14_0_0_1 6.4330 V 48
Lr12 Lr14 1_0_0_0 1_0_0_0 7.1210 V 24
#End of data_154-TOPOS_MWF-PPT1

data_155-TOPOS_MWW-PPT1
_audit_creation_date                2025-02-23
_audit_creation_method              ToposPro
_chemical_formula_structural        MWW-PPT1
_chemical_formula_sum               'Lr25 O72 Si36'
_citation_special_details
;
Space Group: P6/MMM->P 6/m m m. File: MWW-PPT1.cif. 
;
_cell_length_a                      14.39
_cell_length_b                      14.39
_cell_length_c                      25.198
_cell_angle_alpha                   90
_cell_angle_beta                    90
_cell_angle_gamma                   120
_cell_volume                        4518.75
_cell_formula_units_Z               2
_symmetry_space_group_name_H-M      'P 6/m m m'
_symmetry_Int_Tables_number         191
_refine_ls_R_factor_all             0
loop_
_symmetry_equiv_pos_site_id
_symmetry_equiv_pos_as_xyz
1 x,y,z
2 -x,-y,z
3 -y,x-y,z
4 -x+y,-x,z
5 x-y,x,z
6 y,-x+y,z
7 x-y,-y,-z
8 -x,-x+y,-z
9 y,x,-z
10 -y,-x,-z
11 x,x-y,-z
12 -x+y,y,-z
13 -x,-y,-z
14 x,y,-z
15 y,-x+y,-z
16 x-y,x,-z
17 -x+y,-x,-z
18 -y,x-y,-z
19 -x+y,y,z
20 x,x-y,z
21 -y,-x,z
22 y,x,z
23 -x,-x+y,z
24 x-y,-y,z
loop_
_atom_site_label
_atom_site_type_symbol
_atom_site_symmetry_multiplicity
_atom_site_fract_x
_atom_site_fract_y
_atom_site_fract_z
_atom_site_occupancy
O1 O 24 0.39530 0.10600 0.13740 1.0000
O2 O 24 0.39350 0.10520 0.31010 1.0000
O3 O 2 0.66667 0.33333 0.00000 1.0000
O4 O 12 0.54480 0.27240 0.08500 1.0000
O5 O 12 0.54470 0.27235 0.18900 1.0000
O6 O 12 0.54530 0.27265 0.35930 1.0000
O7 O 12 0.35200 0.17600 0.39860 1.0000
O8 O 4 0.66667 0.33333 0.27390 1.0000
O9 O 12 0.38690 0.00000 0.22380 1.0000
O10 O 12 0.18210 0.00000 0.43020 1.0000
O11 O 6 0.50000 0.00000 0.14190 1.0000
O12 O 6 0.50000 0.00000 0.30580 1.0000
O13 O 6 0.29890 0.14945 0.50000 1.0000
Si1 Si 12 0.46960 0.23480 0.13700 1.0000
Si2 Si 12 0.41980 0.20990 0.34430 1.0000
Si3 Si 12 0.25400 0.12700 0.44010 1.0000
Si4 Si 4 0.66667 0.33333 0.06370 1.0000
Si5 Si 4 0.66667 0.33333 0.21010 1.0000
Si6 Si 4 0.66667 0.33333 0.33770 1.0000
Si7 Si 12 0.39270 0.00000 0.16010 1.0000
Si8 Si 12 0.39270 0.00000 0.28760 1.0000
Lr1 Lr 12 0.47419 0.23709 0.24056 1.0000
Lr2 Lr 4 0.66667 0.33333 0.13696 1.0000
Lr3 Lr 12 0.59469 0.18938 0.14467 1.0000
Lr4 Lr 12 0.57780 0.15561 0.24058 1.0000
Lr5 Lr 1 0.00000 0.00000 0.50000 1.0000
Lr6 Lr 3 0.50000 0.50000 0.50000 1.0000
Lr7 Lr 3 0.50000 0.00000 0.00000 1.0000
Lr8 Lr 1 0.00000 0.00000 0.00000 1.0000
Lr9 Lr 2 0.66667 0.33333 0.50000 1.0000
loop_
_topos_bond_atom_site_label_1
_topos_bond_atom_site_label_2
_topos_bond_site_symmetry_1
_topos_bond_site_symmetry_2
_topos_bond_distance
_topos_bond_type
_topos_bond_multiplicity
O1 Si1 1_0_0_0 1_0_0_0 1.6110 V 24
O1 Si7 1_0_0_0 1_0_0_0 1.6120 V 24
O2 Si2 1_0_0_0 1_0_0_0 1.6080 V 24
O2 Si8 1_0_0_0 1_0_0_0 1.6110 V 24
O3 Si4 1_0_0_0 1_0_0_0 1.6050 V 4
O4 Si4 1_0_0_0 1_0_0_0 1.6110 V 12
O4 Si1 1_0_0_0 1_0_0_0 1.6110 V 12
O5 Si1 1_0_0_0 1_0_0_0 1.6100 V 12
O5 Si5 1_0_0_0 1_0_0_0 1.6100 V 12
O6 Si6 1_0_0_0 1_0_0_0 1.6070 V 12
O6 Si2 1_0_0_0 1_0_0_0 1.6090 V 12
O7 Si3 1_0_0_0 1_0_0_0 1.6080 V 12
O7 Si2 1_0_0_0 1_0_0_0 1.6080 V 12
O8 Si6 1_0_0_0 1_0_0_0 1.6080 V 4
O8 Si5 1_0_0_0 1_0_0_0 1.6080 V 4
O9 Si7 1_0_0_0 1_0_0_0 1.6070 V 12
O9 Si8 1_0_0_0 1_0_0_0 1.6100 V 12
O10 Si3 1_0_0_0 1_0_0_0 1.6070 V 24
O11 Si7 1_0_0_0 1_0_0_0 1.6110 V 12
O12 Si8 1_0_0_0 1_0_0_0 1.6110 V 12
O13 Si3 1_0_0_0 1_0_0_0 1.6100 V 12
Lr1 Lr4 1_0_0_0 1_0_0_0 2.3120 V 24
Lr2 Lr3 1_0_0_0 1_0_0_0 1.8040 V 12
Lr3 Lr4 1_0_0_0 1_0_0_0 2.4530 V 12
Lr6 Lr9 1_0_0_0 1_0_0_0 4.1540 V 6
Lr7 Lr8 1_0_0_0 1_1_0_0 7.1950 V 6
#End of data_155-TOPOS_MWW-PPT1

data_156-TOPOS_NAB-PPT1
_audit_creation_date                2025-02-23
_audit_creation_method              ToposPro
_chemical_formula_structural        NAB-PPT1
_chemical_formula_sum               'Lr3 O10 Si5'
_citation_special_details
;
Space Group: I-4M2->I -4 m 2. File: NAB-PPT1.cif. 
;
_cell_length_a                      7.184
_cell_length_b                      7.184
_cell_length_c                      12.043
_cell_angle_alpha                   90
_cell_angle_beta                    90
_cell_angle_gamma                   90
_cell_volume                        621.5375
_cell_formula_units_Z               2
_symmetry_space_group_name_H-M      'I -4 m 2'
_symmetry_Int_Tables_number         119
_refine_ls_R_factor_all             0
loop_
_symmetry_equiv_pos_site_id
_symmetry_equiv_pos_as_xyz
1 x,y,z
2 -x,-y,z
3 -y,-x,-z
4 y,x,-z
5 -x,y,z
6 x,-y,z
7 -y,x,-z
8 y,-x,-z
9 1/2+x,1/2+y,1/2+z
10 1/2-x,1/2-y,1/2+z
11 1/2-y,1/2-x,1/2-z
12 1/2+y,1/2+x,1/2-z
13 1/2-x,1/2+y,1/2+z
14 1/2+x,1/2-y,1/2+z
15 1/2-y,1/2+x,1/2-z
16 1/2+y,1/2-x,1/2-z
loop_
_atom_site_label
_atom_site_type_symbol
_atom_site_symmetry_multiplicity
_atom_site_fract_x
_atom_site_fract_y
_atom_site_fract_z
_atom_site_occupancy
O1 O 8 0.00000 0.18250 0.07780 1.0000
O2 O 4 0.00000 0.00000 0.73640 1.0000
O3 O 8 0.31630 0.81630 0.75000 1.0000
Si1 Si 2 0.00000 0.00000 0.00000 1.0000
Si2 Si 8 0.20660 0.00000 0.78900 1.0000
Lr1 Lr 4 0.00000 0.50000 0.92857 1.0000
Lr2 Lr 2 0.50000 0.50000 0.00000 1.0000
loop_
_topos_bond_atom_site_label_1
_topos_bond_atom_site_label_2
_topos_bond_site_symmetry_1
_topos_bond_site_symmetry_2
_topos_bond_distance
_topos_bond_type
_topos_bond_multiplicity
O1 Si1 1_0_0_0 1_0_0_0 1.6110 V 8
O1 Si2 1_0_0_0 4_0_0_1 1.6130 V 8
O2 Si2 1_0_0_0 1_0_0_0 1.6140 V 8
O3 Si2 1_0_0_0 12_0_0_1 1.6070 V 16
Lr1 Lr1 1_0_0_0 11_0_0_1 4.3010 V 2
Lr1 Lr2 1_0_0_0 1_-1_0_1 3.6940 V 8
#End of data_156-TOPOS_NAB-PPT1

data_157-TOPOS_NAT-PPT1
_audit_creation_date                2025-02-23
_audit_creation_method              ToposPro
_chemical_formula_structural        NAT-PPT1
_chemical_formula_sum               'Lr8 O10 Si5'
_citation_special_details
;
Space Group: I41/AMD->I 41/a m d. File: NAT-PPT1.cif. 
;
_cell_length_a                      13.85
_cell_length_b                      13.85
_cell_length_c                      6.42
_cell_angle_alpha                   90
_cell_angle_beta                    90
_cell_angle_gamma                   90
_cell_volume                        1231.501
_cell_formula_units_Z               4
_symmetry_space_group_name_H-M      'I 41/a m d'
_symmetry_Int_Tables_number         141
_refine_ls_R_factor_all             0
loop_
_symmetry_equiv_pos_site_id
_symmetry_equiv_pos_as_xyz
1 x,y,z
2 -x,-y,z
3 x,1/2-y,1/4-z
4 -x,1/2+y,1/4-z
5 -y,-x,-z
6 y,x,-z
7 y,1/2-x,1/4+z
8 -y,1/2+x,1/4+z
9 -x,1/2-y,1/4-z
10 x,1/2+y,1/4-z
11 -x,y,z
12 x,-y,z
13 y,1/2+x,1/4+z
14 -y,1/2-x,1/4+z
15 -y,x,-z
16 y,-x,-z
17 1/2+x,1/2+y,1/2+z
18 1/2-x,1/2-y,1/2+z
19 1/2+x,-y,3/4-z
20 1/2-x,y,3/4-z
21 1/2-y,1/2-x,1/2-z
22 1/2+y,1/2+x,1/2-z
23 1/2+y,-x,3/4+z
24 1/2-y,x,3/4+z
25 1/2-x,-y,3/4-z
26 1/2+x,y,3/4-z
27 1/2-x,1/2+y,1/2+z
28 1/2+x,1/2-y,1/2+z
29 1/2+y,x,3/4+z
30 1/2-y,-x,3/4+z
31 1/2-y,1/2+x,1/2-z
32 1/2+y,1/2-x,1/2-z
loop_
_atom_site_label
_atom_site_type_symbol
_atom_site_symmetry_multiplicity
_atom_site_fract_x
_atom_site_fract_y
_atom_site_fract_z
_atom_site_occupancy
O1 O 8 0.00000 0.75000 0.62500 1.0000
O2 O 16 0.09480 0.90520 0.50000 1.0000
O3 O 16 0.00000 0.90520 0.85490 1.0000
Si1 Si 16 0.00000 0.86600 0.61880 1.0000
Si2 Si 4 0.00000 0.00000 0.00000 1.0000
Lr1 Lr 8 0.00000 0.00000 0.60000 1.0000
Lr2 Lr 8 0.75000 0.00000 0.87500 1.0000
Lr3 Lr 16 0.75000 0.83333 0.87500 1.0000
loop_
_topos_bond_atom_site_label_1
_topos_bond_atom_site_label_2
_topos_bond_site_symmetry_1
_topos_bond_site_symmetry_2
_topos_bond_distance
_topos_bond_type
_topos_bond_multiplicity
O1 Si1 1_0_0_0 1_0_0_0 1.6070 V 16
O2 Si1 1_0_0_0 5_1_1_1 1.6130 V 32
O3 Si1 1_0_0_0 1_0_0_0 1.6100 V 16
O3 Si2 1_0_0_0 1_0_1_1 1.6100 V 16
Lr1 Lr1 1_0_0_0 5_0_0_1 1.2840 V 4
Lr2 Lr3 1_0_0_0 12_0_1_0 2.3080 V 16
Lr3 Lr3 1_0_0_0 6_0_0_2 2.2890 V 16
#End of data_157-TOPOS_NAT-PPT1

data_158-TOPOS_NES-PPT1
_audit_creation_date                2025-02-23
_audit_creation_method              ToposPro
_chemical_formula_structural        NES-PPT1
_chemical_formula_sum               'Lr15 O68 Si34'
_citation_special_details
;
Space Group: FMMM->F m m m. File: NES-PPT1.cif. 
;
_cell_length_a                      26.06
_cell_length_b                      13.884
_cell_length_c                      22.86
_cell_angle_alpha                   90
_cell_angle_beta                    90
_cell_angle_gamma                   90
_cell_volume                        8271.137
_cell_formula_units_Z               4
_symmetry_space_group_name_H-M      'F m m m'
_symmetry_Int_Tables_number         69
_refine_ls_R_factor_all             0
loop_
_symmetry_equiv_pos_site_id
_symmetry_equiv_pos_as_xyz
1 x,y,z
2 -x,-y,z
3 x,-y,-z
4 -x,y,-z
5 -x,-y,-z
6 x,y,-z
7 -x,y,z
8 x,-y,z
9 x,1/2+y,1/2+z
10 1/2+x,y,1/2+z
11 1/2+x,1/2+y,z
12 -x,1/2-y,1/2+z
13 1/2-x,-y,1/2+z
14 1/2-x,1/2-y,z
15 x,1/2-y,1/2-z
16 1/2+x,-y,1/2-z
17 1/2+x,1/2-y,-z
18 -x,1/2+y,1/2-z
19 1/2-x,y,1/2-z
20 1/2-x,1/2+y,-z
21 -x,1/2-y,1/2-z
22 1/2-x,-y,1/2-z
23 1/2-x,1/2-y,-z
24 x,1/2+y,1/2-z
25 1/2+x,y,1/2-z
26 1/2+x,1/2+y,-z
27 -x,1/2+y,1/2+z
28 1/2-x,y,1/2+z
29 1/2-x,1/2+y,z
30 x,1/2-y,1/2+z
31 1/2+x,-y,1/2+z
32 1/2+x,1/2-y,z
loop_
_atom_site_label
_atom_site_type_symbol
_atom_site_symmetry_multiplicity
_atom_site_fract_x
_atom_site_fract_y
_atom_site_fract_z
_atom_site_occupancy
O1 O 32 0.34790 0.25410 0.86270 1.0000
O2 O 32 0.30810 0.09750 0.82180 1.0000
O3 O 32 0.59880 0.40580 0.84200 1.0000
O4 O 32 0.58690 0.33420 0.94370 1.0000
O5 O 32 0.55060 0.24500 0.85100 1.0000
O6 O 16 0.32010 0.25000 0.75000 1.0000
O7 O 16 0.25000 0.25000 0.83200 1.0000
O8 O 16 0.34890 0.50000 0.76330 1.0000
O9 O 16 0.55040 0.50000 0.75980 1.0000
O10 O 8 0.25000 0.50000 0.75000 1.0000
O11 O 8 0.50000 0.63170 0.00000 1.0000
O12 O 8 0.57250 0.50000 0.00000 1.0000
O13 O 16 0.50000 0.40450 0.68000 1.0000
O14 O 8 0.50000 0.25000 0.75000 1.0000
Si1 Si 32 0.30700 0.21350 0.81550 1.0000
Si2 Si 32 0.59820 0.30530 0.87680 1.0000
Si3 Si 16 0.30370 0.50000 0.71560 1.0000
Si4 Si 16 0.59970 0.50000 0.80180 1.0000
Si5 Si 16 0.50000 0.28870 0.68370 1.0000
Si6 Si 16 0.56120 0.61420 0.00000 1.0000
Si7 Si 8 0.50000 0.50000 0.71960 1.0000
Lr1 Lr 32 0.40240 0.16667 0.75144 1.0000
Lr2 Lr 8 0.50000 0.50000 0.14464 1.0000
Lr3 Lr 16 0.25000 0.33333 0.75000 1.0000
Lr4 Lr 4 0.00000 0.50000 0.00000 1.0000
loop_
_topos_bond_atom_site_label_1
_topos_bond_atom_site_label_2
_topos_bond_site_symmetry_1
_topos_bond_site_symmetry_2
_topos_bond_distance
_topos_bond_type
_topos_bond_multiplicity
O1 Si1 1_0_0_0 1_0_0_0 1.6180 V 32
O1 Si2 1_0_0_0 7_1_0_0 1.6070 V 32
O2 Si1 1_0_0_0 1_0_0_0 1.6170 V 32
O2 Si3 1_0_0_0 15_0_0_1 1.6050 V 32
O3 Si4 1_0_0_0 1_0_0_0 1.5990 V 32
O3 Si2 1_0_0_0 1_0_0_0 1.6060 V 32
O4 Si2 1_0_0_0 1_0_0_0 1.6080 V 32
O4 Si6 1_0_0_0 3_0_1_1 1.6180 V 32
O5 Si2 1_0_0_0 1_0_0_0 1.6090 V 32
O5 Si5 1_0_0_0 15_0_0_1 1.6080 V 32
O6 Si1 1_0_0_0 1_0_0_0 1.6170 V 32
O7 Si1 1_0_0_0 1_0_0_0 1.6140 V 32
O8 Si3 1_0_0_0 1_0_0_0 1.6050 V 16
O8 Si4 1_0_0_0 2_1_1_0 1.6030 V 16
O9 Si7 1_0_0_0 1_0_0_0 1.6030 V 16
O9 Si4 1_0_0_0 1_0_0_0 1.6040 V 16
O10 Si3 1_0_0_0 1_0_0_0 1.6050 V 16
O11 Si6 1_0_0_0 1_0_0_0 1.6130 V 16
O12 Si6 1_0_0_0 1_0_0_0 1.6130 V 16
O13 Si7 1_0_0_0 1_0_0_0 1.6050 V 16
O13 Si5 1_0_0_0 1_0_0_0 1.6100 V 16
O14 Si5 1_0_0_0 1_0_0_0 1.6080 V 16
Lr1 Lr1 1_0_0_0 15_0_0_1 2.3150 V 16
Lr3 Lr3 1_0_0_0 15_0_0_1 2.3140 V 8
Lr4 Lr4 1_0_0_0 11_-1_0_0 14.7640 V 8
#End of data_158-TOPOS_NES-PPT1

data_159-TOPOS_NON-PPT1
_audit_creation_date                2025-02-23
_audit_creation_method              ToposPro
_chemical_formula_structural        NON-PPT1
_chemical_formula_sum               'Lr5 O44 Si22'
_citation_special_details
;
Space Group: FMMM->F m m m. File: NON-PPT1.cif. 
;
_cell_length_a                      22.862
_cell_length_b                      15.656
_cell_length_c                      13.935
_cell_angle_alpha                   90
_cell_angle_beta                    90
_cell_angle_gamma                   90
_cell_volume                        4987.719
_cell_formula_units_Z               4
_symmetry_space_group_name_H-M      'F m m m'
_symmetry_Int_Tables_number         69
_refine_ls_R_factor_all             0
loop_
_symmetry_equiv_pos_site_id
_symmetry_equiv_pos_as_xyz
1 x,y,z
2 -x,-y,z
3 x,-y,-z
4 -x,y,-z
5 -x,-y,-z
6 x,y,-z
7 -x,y,z
8 x,-y,z
9 x,1/2+y,1/2+z
10 1/2+x,y,1/2+z
11 1/2+x,1/2+y,z
12 -x,1/2-y,1/2+z
13 1/2-x,-y,1/2+z
14 1/2-x,1/2-y,z
15 x,1/2-y,1/2-z
16 1/2+x,-y,1/2-z
17 1/2+x,1/2-y,-z
18 -x,1/2+y,1/2-z
19 1/2-x,y,1/2-z
20 1/2-x,1/2+y,-z
21 -x,1/2-y,1/2-z
22 1/2-x,-y,1/2-z
23 1/2-x,1/2-y,-z
24 x,1/2+y,1/2-z
25 1/2+x,y,1/2-z
26 1/2+x,1/2+y,-z
27 -x,1/2+y,1/2+z
28 1/2-x,y,1/2+z
29 1/2-x,1/2+y,z
30 x,1/2-y,1/2+z
31 1/2+x,-y,1/2+z
32 1/2+x,1/2-y,z
loop_
_atom_site_label
_atom_site_type_symbol
_atom_site_symmetry_multiplicity
_atom_site_fract_x
_atom_site_fract_y
_atom_site_fract_z
_atom_site_occupancy
O1 O 32 0.34920 0.08420 0.24950 1.0000
O2 O 32 0.44250 0.14200 0.33850 1.0000
O3 O 32 0.33760 0.17750 0.40600 1.0000
O4 O 16 0.37370 0.25000 0.25000 1.0000
O5 O 8 0.25000 0.25000 0.00000 1.0000
O6 O 16 0.26280 0.41620 0.00000 1.0000
O7 O 8 0.50000 0.12390 0.50000 1.0000
O8 O 8 0.50000 0.00000 0.62790 1.0000
O9 O 16 0.31760 0.50000 0.40480 1.0000
O10 O 8 0.25000 0.50000 0.25000 1.0000
Si1 Si 32 0.37570 0.16250 0.31030 1.0000
Si2 Si 16 0.29690 0.32640 0.00000 1.0000
Si3 Si 16 0.31620 0.50000 0.28920 1.0000
Si4 Si 16 0.50000 0.10180 0.61270 1.0000
Si5 Si 8 0.27780 0.50000 0.50000 1.0000
Lr1 Lr 8 0.35459 0.00000 0.50000 1.0000
Lr2 Lr 4 0.50000 0.50000 0.50000 1.0000
Lr3 Lr 8 0.25000 0.25000 0.25000 1.0000
loop_
_topos_bond_atom_site_label_1
_topos_bond_atom_site_label_2
_topos_bond_site_symmetry_1
_topos_bond_site_symmetry_2
_topos_bond_distance
_topos_bond_type
_topos_bond_multiplicity
O1 Si1 1_0_0_0 1_0_0_0 1.6090 V 32
O1 Si3 1_0_0_0 15_0_0_0 1.6120 V 32
O2 Si1 1_0_0_0 1_0_0_0 1.6090 V 32
O2 Si4 1_0_0_0 4_1_0_1 1.6080 V 32
O3 Si1 1_0_0_0 1_0_0_0 1.6100 V 32
O3 Si2 1_0_0_0 15_0_0_0 1.6080 V 32
O4 Si1 1_0_0_0 1_0_0_0 1.6080 V 32
O5 Si2 1_0_0_0 1_0_0_0 1.6060 V 16
O6 Si2 1_0_0_0 1_0_0_0 1.6080 V 16
O6 Si5 1_0_0_0 13_0_1_-1 1.6070 V 16
O7 Si4 1_0_0_0 1_0_0_0 1.6080 V 16
O8 Si4 1_0_0_0 1_0_0_0 1.6080 V 16
O9 Si5 1_0_0_0 1_0_0_0 1.6090 V 16
O9 Si3 1_0_0_0 1_0_0_0 1.6110 V 16
O10 Si3 1_0_0_0 1_0_0_0 1.6090 V 16
#End of data_159-TOPOS_NON-PPT1

data_160-TOPOS_NPO-PPT1
_audit_creation_date                2025-02-23
_audit_creation_method              ToposPro
_chemical_formula_structural        NPO-PPT1
_chemical_formula_sum               'Lr2 O6 Si3'
_citation_special_details
;
Space Group: P-62C->P -6 2 c. File: NPO-PPT1.cif. 
;
_cell_length_a                      8.391
_cell_length_b                      8.391
_cell_length_c                      5.259
_cell_angle_alpha                   90
_cell_angle_beta                    90
_cell_angle_gamma                   120
_cell_volume                        320.6721
_cell_formula_units_Z               2
_symmetry_space_group_name_H-M      'P -6 2 c'
_symmetry_Int_Tables_number         190
_refine_ls_R_factor_all             0
loop_
_symmetry_equiv_pos_site_id
_symmetry_equiv_pos_as_xyz
1 x,y,z
2 -y,x-y,z
3 -x+y,-x,z
4 x-y,-y,-z
5 -x,-x+y,-z
6 y,x,-z
7 y,x,1/2+z
8 -x,-x+y,1/2+z
9 x-y,-y,1/2+z
10 x,y,1/2-z
11 -x+y,-x,1/2-z
12 -y,x-y,1/2-z
loop_
_atom_site_label
_atom_site_type_symbol
_atom_site_symmetry_multiplicity
_atom_site_fract_x
_atom_site_fract_y
_atom_site_fract_z
_atom_site_occupancy
O1 O 6 0.16910 0.69340 0.75000 1.0000
O2 O 6 0.00000 0.37820 0.50000 1.0000
Si1 Si 6 0.11690 0.48060 0.75000 1.0000
Lr1 Lr 2 0.33333 0.66667 0.25000 1.0000
Lr2 Lr 2 0.00000 0.00000 0.75000 1.0000
loop_
_topos_bond_atom_site_label_1
_topos_bond_atom_site_label_2
_topos_bond_site_symmetry_1
_topos_bond_site_symmetry_2
_topos_bond_distance
_topos_bond_type
_topos_bond_multiplicity
O1 Si1 1_0_0_0 1_0_0_0 1.6120 V 6
O1 Si1 1_0_0_0 3_0_1_0 1.6130 V 6
O2 Si1 1_0_0_0 1_0_0_0 1.6080 V 12
Lr2 Lr2 1_0_0_0 4_0_0_2 2.6300 V 2
#End of data_160-TOPOS_NPO-PPT1

data_161-TOPOS_NPT-PPT1
_audit_creation_date                2025-02-23
_audit_creation_method              ToposPro
_chemical_formula_structural        NPT-PPT1
_chemical_formula_sum               'Lr5 O72 Si36'
_citation_special_details
;
Space Group: PM-3M->P m -3 m. File: NPT-PPT1.cif. 
;
_cell_length_a                      13.883
_cell_length_b                      13.883
_cell_length_c                      13.883
_cell_angle_alpha                   90
_cell_angle_beta                    90
_cell_angle_gamma                   90
_cell_volume                        2675.778
_cell_formula_units_Z               1
_symmetry_space_group_name_H-M      'P m -3 m'
_symmetry_Int_Tables_number         221
_refine_ls_R_factor_all             0
loop_
_symmetry_equiv_pos_site_id
_symmetry_equiv_pos_as_xyz
1 x,y,z
2 -x,-y,z
3 x,-y,-z
4 -x,y,-z
5 z,x,y
6 y,z,x
7 -z,-x,y
8 -y,z,-x
9 z,-x,-y
10 -y,-z,x
11 -z,x,-y
12 y,-z,-x
13 -y,-x,-z
14 y,x,-z
15 y,-x,z
16 -y,x,z
17 -x,-z,-y
18 -z,-y,-x
19 x,z,-y
20 -z,y,x
21 x,-z,y
22 z,y,-x
23 -x,z,y
24 z,-y,x
25 -x,-y,-z
26 x,y,-z
27 -x,y,z
28 x,-y,z
29 -z,-x,-y
30 -y,-z,-x
31 z,x,-y
32 y,-z,x
33 -z,x,y
34 y,z,-x
35 z,-x,y
36 -y,z,x
37 y,x,z
38 -y,-x,z
39 -y,x,-z
40 y,-x,-z
41 x,z,y
42 z,y,x
43 -x,-z,y
44 z,-y,-x
45 -x,z,-y
46 -z,-y,x
47 x,-z,-y
48 -z,y,-x
loop_
_atom_site_label
_atom_site_type_symbol
_atom_site_symmetry_multiplicity
_atom_site_fract_x
_atom_site_fract_y
_atom_site_fract_z
_atom_site_occupancy
O1 O 12 0.27600 0.27600 0.50000 1.0000
O2 O 24 0.33480 0.20190 0.33480 1.0000
O3 O 24 0.16180 0.16180 0.40560 1.0000
O4 O 12 0.13440 0.00000 0.50000 1.0000
Si1 Si 12 0.11390 0.11390 0.50000 1.0000
Si2 Si 24 0.24350 0.24350 0.39330 1.0000
Lr1 Lr 3 0.50000 0.00000 0.50000 1.0000
Lr2 Lr 1 0.50000 0.50000 0.50000 1.0000
Lr3 Lr 1 0.00000 0.00000 0.00000 1.0000
loop_
_topos_bond_atom_site_label_1
_topos_bond_atom_site_label_2
_topos_bond_site_symmetry_1
_topos_bond_site_symmetry_2
_topos_bond_distance
_topos_bond_type
_topos_bond_multiplicity
O1 Si2 1_0_0_0 1_0_0_0 1.6130 V 24
O2 Si2 1_0_0_0 1_0_0_0 1.6120 V 48
O3 Si1 1_0_0_0 1_0_0_0 1.6130 V 24
O3 Si2 1_0_0_0 1_0_0_0 1.6130 V 24
O4 Si1 1_0_0_0 1_0_0_0 1.6070 V 24
Lr1 Lr3 1_0_0_0 1_0_0_0 9.8170 V 12
Lr1 Lr2 1_0_0_0 1_0_-1_0 6.9420 V 6
#End of data_161-TOPOS_NPT-PPT1

data_162-TOPOS_NSI-PPT1
_audit_creation_date                2025-02-23
_audit_creation_method              ToposPro
_chemical_formula_structural        NSI-PPT1
_chemical_formula_sum               'Lr2 O6 Si3'
_citation_special_details
;
Space Group: C2/M->C 2/m. File: NSI-PPT1.cif. 
;
_cell_length_a                      14.129
_cell_length_b                      5.253
_cell_length_c                      8.928
_cell_angle_alpha                   90
_cell_angle_beta                    105.368
_cell_angle_gamma                   90
_cell_volume                        638.9395
_cell_formula_units_Z               4
_symmetry_space_group_name_H-M      'C 2/m'
_symmetry_Int_Tables_number         12
_refine_ls_R_factor_all             0
loop_
_symmetry_equiv_pos_site_id
_symmetry_equiv_pos_as_xyz
1 x,y,z
2 -x,y,-z
3 -x,-y,-z
4 x,-y,z
5 1/2+x,1/2+y,z
6 1/2-x,1/2+y,-z
7 1/2-x,1/2-y,-z
8 1/2+x,1/2-y,z
loop_
_atom_site_label
_atom_site_type_symbol
_atom_site_symmetry_multiplicity
_atom_site_fract_x
_atom_site_fract_y
_atom_site_fract_z
_atom_site_occupancy
O1 O 8 0.53110 0.25000 0.26360 1.0000
O2 O 4 0.67520 0.00000 0.19610 1.0000
O3 O 4 0.13450 0.00000 0.76680 1.0000
O4 O 2 0.50000 0.00000 0.00000 1.0000
O5 O 2 0.00000 0.00000 0.50000 1.0000
O6 O 4 0.25000 0.25000 0.00000 1.0000
Si1 Si 4 0.55900 0.00000 0.18050 1.0000
Si2 Si 4 0.01840 0.00000 0.68550 1.0000
Si3 Si 4 0.23960 0.00000 0.89320 1.0000
Lr1 Lr 4 0.69607 0.00000 0.65463 1.0000
Lr2 Lr 4 0.58449 0.50000 0.01187 1.0000
loop_
_topos_bond_atom_site_label_1
_topos_bond_atom_site_label_2
_topos_bond_site_symmetry_1
_topos_bond_site_symmetry_2
_topos_bond_distance
_topos_bond_type
_topos_bond_multiplicity
O1 Si1 1_0_0_0 1_0_0_0 1.6080 V 8
O1 Si2 1_0_0_0 6_0_0_1 1.6090 V 8
O2 Si1 1_0_0_0 1_0_0_0 1.6100 V 4
O2 Si3 1_0_0_0 2_1_0_1 1.6100 V 4
O3 Si2 1_0_0_0 1_0_0_0 1.6080 V 4
O3 Si3 1_0_0_0 1_0_0_0 1.6090 V 4
O4 Si1 1_0_0_0 1_0_0_0 1.6060 V 4
O5 Si2 1_0_0_0 1_0_0_0 1.6070 V 4
O6 Si3 1_0_0_0 1_0_0_-1 1.6070 V 8
Lr1 Lr1 1_0_0_0 6_1_0_1 4.3670 V 4
Lr2 Lr2 1_0_0_0 2_1_0_0 2.3400 V 2
#End of data_162-TOPOS_NSI-PPT1

data_163-TOPOS_OBW-PPT1
_audit_creation_date                2025-02-23
_audit_creation_method              ToposPro
_chemical_formula_structural        OBW-PPT1
_chemical_formula_sum               'Lr5 O76 Si38'
_citation_special_details
;
Space Group: I4/MMM->I 4/m m m. File: OBW-PPT1.cif. 
;
_cell_length_a                      13.914
_cell_length_b                      13.914
_cell_length_c                      30.844
_cell_angle_alpha                   90
_cell_angle_beta                    90
_cell_angle_gamma                   90
_cell_volume                        5971.379
_cell_formula_units_Z               2
_symmetry_space_group_name_H-M      'I 4/m m m'
_symmetry_Int_Tables_number         139
_refine_ls_R_factor_all             0
loop_
_symmetry_equiv_pos_site_id
_symmetry_equiv_pos_as_xyz
1 x,y,z
2 -x,-y,z
3 x,-y,-z
4 -x,y,-z
5 -y,-x,-z
6 y,x,-z
7 y,-x,z
8 -y,x,z
9 -x,-y,-z
10 x,y,-z
11 -x,y,z
12 x,-y,z
13 y,x,z
14 -y,-x,z
15 -y,x,-z
16 y,-x,-z
17 1/2+x,1/2+y,1/2+z
18 1/2-x,1/2-y,1/2+z
19 1/2+x,1/2-y,1/2-z
20 1/2-x,1/2+y,1/2-z
21 1/2-y,1/2-x,1/2-z
22 1/2+y,1/2+x,1/2-z
23 1/2+y,1/2-x,1/2+z
24 1/2-y,1/2+x,1/2+z
25 1/2-x,1/2-y,1/2-z
26 1/2+x,1/2+y,1/2-z
27 1/2-x,1/2+y,1/2+z
28 1/2+x,1/2-y,1/2+z
29 1/2+y,1/2+x,1/2+z
30 1/2-y,1/2-x,1/2+z
31 1/2-y,1/2+x,1/2-z
32 1/2+y,1/2-x,1/2-z
loop_
_atom_site_label
_atom_site_type_symbol
_atom_site_symmetry_multiplicity
_atom_site_fract_x
_atom_site_fract_y
_atom_site_fract_z
_atom_site_occupancy
O1 O 32 0.33620 0.09440 0.34820 1.0000
O2 O 32 0.33420 0.20080 0.07400 1.0000
O3 O 8 0.50000 0.00000 0.35300 1.0000
O4 O 8 0.13400 0.00000 0.00000 1.0000
O5 O 16 0.16150 0.16150 0.04240 1.0000
O6 O 16 0.16420 0.16420 0.36750 1.0000
O7 O 16 0.40570 0.00000 0.28040 1.0000
O8 O 16 0.22490 0.00000 0.40080 1.0000
O9 O 8 0.27540 0.27540 0.00000 1.0000
Si1 Si 32 0.25630 0.10630 0.38560 1.0000
Si2 Si 16 0.24300 0.24300 0.04800 1.0000
Si3 Si 8 0.11370 0.11370 0.00000 1.0000
Si4 Si 16 0.00000 0.39350 0.33230 1.0000
Si5 Si 4 0.00000 0.50000 0.25000 1.0000
Lr1 Lr 4 0.50000 0.00000 0.50000 1.0000
Lr2 Lr 4 0.00000 0.00000 0.19657 1.0000
Lr3 Lr 2 0.00000 0.00000 0.50000 1.0000
loop_
_topos_bond_atom_site_label_1
_topos_bond_atom_site_label_2
_topos_bond_site_symmetry_1
_topos_bond_site_symmetry_2
_topos_bond_distance
_topos_bond_type
_topos_bond_multiplicity
O1 Si1 1_0_0_0 1_0_0_0 1.6110 V 32
O1 Si4 1_0_0_0 7_0_0_0 1.6130 V 32
O2 Si2 1_0_0_0 1_0_0_0 1.6120 V 32
O2 Si1 1_0_0_0 21_0_0_0 1.6110 V 32
O3 Si4 1_0_0_0 8_1_0_0 1.6140 V 16
O4 Si3 1_0_0_0 1_0_0_0 1.6070 V 16
O5 Si3 1_0_0_0 1_0_0_0 1.6110 V 16
O5 Si2 1_0_0_0 1_0_0_0 1.6130 V 16
O6 Si1 1_0_0_0 1_0_0_0 1.6130 V 32
O7 Si4 1_0_0_0 7_0_0_0 1.6100 V 16
O7 Si5 1_0_0_0 7_0_0_0 1.6130 V 16
O8 Si1 1_0_0_0 1_0_0_0 1.6120 V 32
O9 Si2 1_0_0_0 1_0_0_0 1.6120 V 16
Lr1 Lr3 1_0_0_0 1_0_0_0 6.9570 V 8
Lr1 Lr2 1_0_0_0 17_0_0_0 9.2280 V 16
Lr2 Lr3 1_0_0_0 1_0_0_0 9.3590 V 4
Lr2 Lr2 1_0_0_0 19_0_-1_0 10.3760 V 8
#End of data_163-TOPOS_OBW-PPT1

data_164-TOPOS_OFF-PPT1
_audit_creation_date                2025-02-23
_audit_creation_method              ToposPro
_chemical_formula_structural        OFF-PPT1
_chemical_formula_sum               'Lr5 O36 Si18'
_citation_special_details
;
Space Group: P-6M2->P -6 m 2. File: OFF-PPT1.cif. 
;
_cell_length_a                      13.063
_cell_length_b                      13.063
_cell_length_c                      7.565
_cell_angle_alpha                   90
_cell_angle_beta                    90
_cell_angle_gamma                   120
_cell_volume                        1117.958
_cell_formula_units_Z               1
_symmetry_space_group_name_H-M      'P -6 m 2'
_symmetry_Int_Tables_number         187
_refine_ls_R_factor_all             0
loop_
_symmetry_equiv_pos_site_id
_symmetry_equiv_pos_as_xyz
1 x,y,z
2 -y,x-y,z
3 -x+y,-x,z
4 -y,-x,-z
5 x,x-y,-z
6 -x+y,y,-z
7 -x+y,y,z
8 x,x-y,z
9 -y,-x,z
10 x,y,-z
11 -x+y,-x,-z
12 -y,x-y,-z
loop_
_atom_site_label
_atom_site_type_symbol
_atom_site_symmetry_multiplicity
_atom_site_fract_x
_atom_site_fract_y
_atom_site_fract_z
_atom_site_occupancy
O1 O 12 0.03650 0.34770 0.32630 1.0000
O2 O 6 0.09605 0.19210 0.22440 1.0000
O3 O 6 0.87180 0.12820 0.26180 1.0000
O4 O 6 0.99500 0.26790 0.00000 1.0000
O5 O 3 0.23590 0.47180 0.50000 1.0000
O6 O 3 0.07560 0.53780 0.50000 1.0000
Si1 Si 12 0.99980 0.23400 0.20320 1.0000
Si2 Si 6 0.09640 0.42640 0.50000 1.0000
Lr1 Lr 1 0.66667 0.33333 0.00000 1.0000
Lr2 Lr 1 0.00000 0.00000 0.00000 1.0000
Lr3 Lr 1 0.33333 0.66667 0.00000 1.0000
Lr4 Lr 1 0.00000 0.00000 0.50000 1.0000
Lr5 Lr 1 0.66667 0.33333 0.50000 1.0000
loop_
_topos_bond_atom_site_label_1
_topos_bond_atom_site_label_2
_topos_bond_site_symmetry_1
_topos_bond_site_symmetry_2
_topos_bond_distance
_topos_bond_type
_topos_bond_multiplicity
O1 Si2 1_0_0_0 1_0_0_0 1.6100 V 12
O1 Si1 1_0_0_0 1_-1_0_0 1.6100 V 12
O2 Si1 1_0_0_0 1_-1_0_0 1.6110 V 12
O3 Si1 1_0_0_0 1_0_0_0 1.6100 V 12
O4 Si1 1_0_0_0 1_0_0_0 1.6100 V 12
O5 Si2 1_0_0_0 1_0_0_0 1.6100 V 6
O6 Si2 1_0_0_0 1_0_0_0 1.6080 V 6
Lr1 Lr5 1_0_0_0 1_0_0_0 3.7820 V 2
Lr1 Lr3 1_0_0_0 1_0_0_0 7.5420 V 3
#End of data_164-TOPOS_OFF-PPT1

data_165-TOPOS_OKO-NT
_audit_creation_date                2025-02-23
_audit_creation_method              ToposPro
_chemical_formula_structural        OKO-NT
_chemical_formula_sum               'Lr15 O68 Si34'
_citation_special_details
;
Space Group: C2/M->C 2/m. File: OKO-NT.cif. 
;
_cell_length_a                      24.0638
_cell_length_b                      13.8332
_cell_length_c                      12.3516
_cell_angle_alpha                   90
_cell_angle_beta                    109.1282
_cell_angle_gamma                   90
_cell_volume                        3884.583
_cell_formula_units_Z               2
_symmetry_space_group_name_H-M      'C 2/m'
_symmetry_Int_Tables_number         12
_refine_ls_R_factor_all             0
loop_
_symmetry_equiv_pos_site_id
_symmetry_equiv_pos_as_xyz
1 x,y,z
2 -x,y,-z
3 -x,-y,-z
4 x,-y,z
5 1/2+x,1/2+y,z
6 1/2-x,1/2+y,-z
7 1/2-x,1/2-y,-z
8 1/2+x,1/2-y,z
loop_
_atom_site_label
_atom_site_type_symbol
_atom_site_symmetry_multiplicity
_atom_site_fract_x
_atom_site_fract_y
_atom_site_fract_z
_atom_site_occupancy
O1 O 8 0.32386 0.90300 0.22624 1.0000
O2 O 8 0.34575 0.71973 0.20513 1.0000
O3 O 8 0.32387 0.78171 0.38829 1.0000
O4 O 8 0.23821 0.77290 0.19189 1.0000
O5 O 8 0.31918 0.90386 0.54843 1.0000
O6 O 8 0.36500 0.73203 0.60392 1.0000
O7 O 8 0.34296 0.77813 0.00193 1.0000
O8 O 8 0.30452 0.90517 0.83622 1.0000
O9 O 8 0.37239 0.76747 0.81758 1.0000
O10 O 8 0.32790 0.59528 0.03545 1.0000
O11 O 8 0.35198 0.59456 0.73975 1.0000
O12 O 8 0.04359 0.83654 0.22201 1.0000
O13 O 8 0.93177 0.83139 0.12370 1.0000
O14 O 4 0.20882 0.00000 0.81527 1.0000
O15 O 4 0.25214 0.00000 0.64319 1.0000
O16 O 4 0.98688 0.00000 0.14525 1.0000
O17 O 4 0.22932 0.50000 0.96418 1.0000
O18 O 4 0.27122 0.50000 0.79454 1.0000
O19 O 4 0.27152 0.50000 0.57947 1.0000
O20 O 4 0.25000 0.75000 0.50000 1.0000
O21 O 4 0.00000 0.13071 0.00000 1.0000
Si1 Si 8 0.30734 0.79428 0.25172 1.0000
Si2 Si 8 0.31390 0.79182 0.51052 1.0000
Si3 Si 8 0.31918 0.79274 0.86499 1.0000
Si4 Si 8 0.36279 0.69137 0.09354 1.0000
Si5 Si 8 0.38772 0.69128 0.73301 1.0000
Si6 Si 8 0.99052 0.88611 0.12165 1.0000
Si7 Si 4 0.26765 0.00000 0.78013 1.0000
Si8 Si 4 0.21154 0.50000 0.82652 1.0000
Si9 Si 4 0.31105 0.50000 0.71249 1.0000
Si10 Si 4 0.21946 0.50000 0.45809 1.0000
Si11 Si 4 0.29462 0.50000 0.05670 1.0000
Lr1 Lr 8 0.23230 0.85128 0.33208 1.0000
Lr2 Lr 8 0.24872 0.66667 0.01145 1.0000
Lr3 Lr 4 0.85613 0.00000 0.89836 1.0000
Lr4 Lr 4 0.51940 0.00000 0.84097 1.0000
Lr5 Lr 2 0.50000 0.50000 0.50000 1.0000
Lr6 Lr 2 0.50000 0.00000 0.50000 1.0000
Lr7 Lr 2 0.50000 0.00000 0.00000 1.0000
loop_
_topos_bond_atom_site_label_1
_topos_bond_atom_site_label_2
_topos_bond_site_symmetry_1
_topos_bond_site_symmetry_2
_topos_bond_distance
_topos_bond_type
_topos_bond_multiplicity
O1 Si1 1_0_0_0 1_0_0_0 1.6130 V 8
O1 Si8 1_0_0_0 6_0_0_1 1.6080 V 8
O2 Si4 1_0_0_0 1_0_0_0 1.6100 V 8
O2 Si1 1_0_0_0 1_0_0_0 1.6120 V 8
O3 Si2 1_0_0_0 1_0_0_0 1.6110 V 8
O3 Si1 1_0_0_0 1_0_0_0 1.6110 V 8
O4 Si1 1_0_0_0 1_0_0_0 1.6110 V 8
O4 Si3 1_0_0_0 7_0_1_1 1.6090 V 8
O5 Si2 1_0_0_0 1_0_0_0 1.6120 V 8
O5 Si10 1_0_0_0 6_0_0_1 1.6100 V 8
O6 Si5 1_0_0_0 1_0_0_0 1.6090 V 8
O6 Si2 1_0_0_0 1_0_0_0 1.6120 V 8
O7 Si4 1_0_0_0 1_0_0_0 1.6110 V 8
O7 Si3 1_0_0_0 1_0_0_-1 1.6110 V 8
O8 Si3 1_0_0_0 1_0_0_0 1.6090 V 8
O8 Si7 1_0_0_0 1_0_1_0 1.6080 V 8
O9 Si5 1_0_0_0 1_0_0_0 1.6100 V 8
O9 Si3 1_0_0_0 1_0_0_0 1.6110 V 8
O10 Si11 1_0_0_0 1_0_0_0 1.6080 V 8
O10 Si4 1_0_0_0 1_0_0_0 1.6100 V 8
O11 Si9 1_0_0_0 1_0_0_0 1.6050 V 8
O11 Si5 1_0_0_0 1_0_0_0 1.6070 V 8
O12 Si5 1_0_0_0 7_0_1_1 1.6080 V 8
O12 Si6 1_0_0_0 1_-1_0_0 1.6130 V 8
O13 Si6 1_0_0_0 1_0_0_0 1.6110 V 8
O13 Si4 1_0_0_0 8_0_1_0 1.6090 V 8
O14 Si7 1_0_0_0 1_0_0_0 1.6110 V 4
O14 Si11 1_0_0_0 6_0_-1_1 1.6100 V 4
O15 Si7 1_0_0_0 1_0_0_0 1.6080 V 4
O15 Si10 1_0_0_0 6_0_-1_1 1.6100 V 4
O16 Si6 1_0_0_0 1_0_-1_0 1.6100 V 8
O17 Si8 1_0_0_0 1_0_0_0 1.6120 V 4
O17 Si11 1_0_0_0 1_0_0_1 1.6120 V 4
O18 Si9 1_0_0_0 1_0_0_0 1.6070 V 4
O18 Si8 1_0_0_0 1_0_0_0 1.6090 V 4
O19 Si9 1_0_0_0 1_0_0_0 1.6060 V 4
O19 Si10 1_0_0_0 1_0_0_0 1.6080 V 4
O20 Si2 1_0_0_0 1_0_0_0 1.6080 V 8
O21 Si6 1_0_0_0 3_1_1_0 1.6090 V 8
Lr2 Lr2 1_0_0_0 7_0_1_0 2.3260 V 4
Lr4 Lr6 1_0_0_0 1_0_0_0 4.0820 V 4
Lr4 Lr7 1_0_0_0 1_0_0_1 2.1630 V 4
Lr5 Lr6 1_0_0_0 1_0_0_0 6.9170 V 4
#End of data_165-TOPOS_OKO-NT

data_166-TOPOS_OSI-PPT1
_audit_creation_date                2025-02-23
_audit_creation_method              ToposPro
_chemical_formula_structural        OSI-PPT1
_chemical_formula_sum               'Lr11 O32 Si16'
_citation_special_details
;
Space Group: I4/MMM->I 4/m m m. File: OSI-PPT1.cif. 
;
_cell_length_a                      18.506
_cell_length_b                      18.506
_cell_length_c                      5.268
_cell_angle_alpha                   90
_cell_angle_beta                    90
_cell_angle_gamma                   90
_cell_volume                        1804.143
_cell_formula_units_Z               2
_symmetry_space_group_name_H-M      'I 4/m m m'
_symmetry_Int_Tables_number         139
_refine_ls_R_factor_all             0
loop_
_symmetry_equiv_pos_site_id
_symmetry_equiv_pos_as_xyz
1 x,y,z
2 -x,-y,z
3 x,-y,-z
4 -x,y,-z
5 -y,-x,-z
6 y,x,-z
7 y,-x,z
8 -y,x,z
9 -x,-y,-z
10 x,y,-z
11 -x,y,z
12 x,-y,z
13 y,x,z
14 -y,-x,z
15 -y,x,-z
16 y,-x,-z
17 1/2+x,1/2+y,1/2+z
18 1/2-x,1/2-y,1/2+z
19 1/2+x,1/2-y,1/2-z
20 1/2-x,1/2+y,1/2-z
21 1/2-y,1/2-x,1/2-z
22 1/2+y,1/2+x,1/2-z
23 1/2+y,1/2-x,1/2+z
24 1/2-y,1/2+x,1/2+z
25 1/2-x,1/2-y,1/2-z
26 1/2+x,1/2+y,1/2-z
27 1/2-x,1/2+y,1/2+z
28 1/2+x,1/2-y,1/2+z
29 1/2+y,1/2+x,1/2+z
30 1/2-y,1/2-x,1/2+z
31 1/2-y,1/2+x,1/2-z
32 1/2+y,1/2-x,1/2-z
loop_
_atom_site_label
_atom_site_type_symbol
_atom_site_symmetry_multiplicity
_atom_site_fract_x
_atom_site_fract_y
_atom_site_fract_z
_atom_site_occupancy
O1 O 8 0.19230 0.19230 0.50000 1.0000
O2 O 16 0.31480 0.18520 0.75000 1.0000
O3 O 16 0.26980 0.07150 0.50000 1.0000
O4 O 16 0.17060 0.00000 0.25000 1.0000
O5 O 8 0.07110 0.07110 0.00000 1.0000
Si1 Si 16 0.27260 0.15850 0.50000 1.0000
Si2 Si 8 0.12090 0.00000 0.00000 1.0000
Si3 Si 8 0.22040 0.00000 0.50000 1.0000
Lr1 Lr 8 0.11166 0.11166 0.50000 1.0000
Lr2 Lr 8 0.16607 0.16607 0.00000 1.0000
Lr3 Lr 2 0.00000 0.00000 0.50000 1.0000
Lr4 Lr 4 0.50000 0.00000 0.00000 1.0000
loop_
_topos_bond_atom_site_label_1
_topos_bond_atom_site_label_2
_topos_bond_site_symmetry_1
_topos_bond_site_symmetry_2
_topos_bond_distance
_topos_bond_type
_topos_bond_multiplicity
O1 Si1 1_0_0_0 1_0_0_0 1.6120 V 16
O2 Si1 1_0_0_0 21_0_0_1 1.6090 V 32
O3 Si3 1_0_0_0 1_0_0_0 1.6080 V 16
O3 Si1 1_0_0_0 1_0_0_0 1.6110 V 16
O4 Si2 1_0_0_0 1_0_0_0 1.6060 V 16
O4 Si3 1_0_0_0 1_0_0_0 1.6070 V 16
O5 Si2 1_0_0_0 6_0_0_0 1.6060 V 16
Lr1 Lr2 1_0_0_0 1_0_0_0 2.9940 V 16
Lr1 Lr3 1_0_0_0 1_0_0_0 2.9220 V 8
Lr4 Lr4 1_0_0_0 21_0_0_0 2.6340 V 4
#End of data_166-TOPOS_OSI-PPT1

data_167-TOPOS_OSO-PPT1
_audit_creation_date                2025-02-23
_audit_creation_method              ToposPro
_chemical_formula_structural        OSO-PPT1
_chemical_formula_sum               'Lr1 O6 Si3'
_citation_special_details
;
Space Group: P6222->P 62 2 2. File: OSO-PPT1.cif. 
;
_cell_length_a                      10.101
_cell_length_b                      10.101
_cell_length_c                      7.647
_cell_angle_alpha                   90
_cell_angle_beta                    90
_cell_angle_gamma                   120
_cell_volume                        675.6946
_cell_formula_units_Z               3
_symmetry_space_group_name_H-M      'P 62 2 2'
_symmetry_Int_Tables_number         180
_refine_ls_R_factor_all             0
loop_
_symmetry_equiv_pos_site_id
_symmetry_equiv_pos_as_xyz
1 x,y,z
2 -x,-y,z
3 -y,x-y,2/3+z
4 -x+y,-x,1/3+z
5 x-y,x,1/3+z
6 y,-x+y,2/3+z
7 x-y,-y,-z
8 -x,-x+y,1/3-z
9 y,x,2/3-z
10 -y,-x,2/3-z
11 x,x-y,1/3-z
12 -x+y,y,-z
loop_
_atom_site_label
_atom_site_type_symbol
_atom_site_symmetry_multiplicity
_atom_site_fract_x
_atom_site_fract_y
_atom_site_fract_z
_atom_site_occupancy
O1 O 12 0.46430 0.35700 0.20950 1.0000
O2 O 6 0.31710 0.68290 0.33333 1.0000
Si1 Si 6 0.28655 0.57310 0.50000 1.0000
Si2 Si 3 0.00000 0.50000 0.66667 1.0000
Lr1 Lr 3 0.00000 0.00000 0.16667 1.0000
loop_
_topos_bond_atom_site_label_1
_topos_bond_atom_site_label_2
_topos_bond_site_symmetry_1
_topos_bond_site_symmetry_2
_topos_bond_distance
_topos_bond_type
_topos_bond_multiplicity
O1 Si2 1_0_0_0 3_1_1_-1 1.6100 V 12
O1 Si1 1_0_0_0 6_0_0_-1 1.6140 V 12
O2 Si1 1_0_0_0 1_0_0_0 1.6150 V 12
Lr1 Lr1 1_0_0_0 1_0_1_0 10.1010 V 3
Lr1 Lr1 1_0_0_0 3_0_0_-1 2.5490 V 3
#End of data_167-TOPOS_OSO-PPT1

data_168-TOPOS_OWE-PPT1
_audit_creation_date                2025-02-23
_audit_creation_method              ToposPro
_chemical_formula_structural        OWE-PPT1
_chemical_formula_sum               'Lr1 O4 Si2'
_citation_special_details
;
Space Group: PMMA->P m m a. File: OWE-PPT1.cif. 
;
_cell_length_a                      14.355
_cell_length_b                      7.166
_cell_length_c                      9.08
_cell_angle_alpha                   90
_cell_angle_beta                    90
_cell_angle_gamma                   90
_cell_volume                        934.0408
_cell_formula_units_Z               8
_symmetry_space_group_name_H-M      'P m m a'
_symmetry_Int_Tables_number         51
_refine_ls_R_factor_all             0
loop_
_symmetry_equiv_pos_site_id
_symmetry_equiv_pos_as_xyz
1 x,y,z
2 1/2-x,-y,z
3 1/2+x,-y,-z
4 -x,y,-z
5 -x,-y,-z
6 1/2+x,y,-z
7 1/2-x,y,z
8 x,-y,z
loop_
_atom_site_label
_atom_site_type_symbol
_atom_site_symmetry_multiplicity
_atom_site_fract_x
_atom_site_fract_y
_atom_site_fract_z
_atom_site_occupancy
O1 O 8 0.07940 0.31660 0.21680 1.0000
O2 O 8 0.12340 0.31650 0.49740 1.0000
O3 O 4 0.11220 0.00000 0.35280 1.0000
O4 O 4 0.25000 0.23240 0.29790 1.0000
O5 O 4 0.07660 0.50000 0.73780 1.0000
O6 O 2 0.25000 0.50000 0.64740 1.0000
O7 O 2 0.00000 0.50000 0.00000 1.0000
Si1 Si 8 0.14160 0.21620 0.34130 1.0000
Si2 Si 4 0.14290 0.50000 0.59490 1.0000
Si3 Si 4 0.02060 0.50000 0.17390 1.0000
Lr1 Lr 2 0.25000 0.50000 0.14540 1.0000
Lr2 Lr 2 0.25000 0.00000 0.82270 1.0000
Lr3 Lr 2 0.00000 0.50000 0.50000 1.0000
Lr4 Lr 2 0.00000 0.00000 0.50000 1.0000
loop_
_topos_bond_atom_site_label_1
_topos_bond_atom_site_label_2
_topos_bond_site_symmetry_1
_topos_bond_site_symmetry_2
_topos_bond_distance
_topos_bond_type
_topos_bond_multiplicity
O1 Si3 1_0_0_0 1_0_0_0 1.6100 V 8
O1 Si1 1_0_0_0 1_0_0_0 1.6100 V 8
O2 Si2 1_0_0_0 1_0_0_0 1.6100 V 8
O2 Si1 1_0_0_0 1_0_0_0 1.6110 V 8
O3 Si1 1_0_0_0 1_0_0_0 1.6090 V 8
O4 Si1 1_0_0_0 1_0_0_0 1.6090 V 8
O5 Si2 1_0_0_0 1_0_0_0 1.6090 V 4
O5 Si3 1_0_0_0 4_0_0_1 1.6090 V 4
O6 Si2 1_0_0_0 1_0_0_0 1.6100 V 4
O7 Si3 1_0_0_0 1_0_0_0 1.6060 V 4
Lr1 Lr2 1_0_0_0 1_0_1_-1 4.6290 V 4
Lr2 Lr4 1_0_0_0 1_0_0_0 4.6330 V 4
Lr2 Lr2 1_0_0_0 3_0_0_2 7.8670 V 2
#End of data_168-TOPOS_OWE-PPT1

data_169-TOPOS_PAR-NT
_audit_creation_date                2025-02-23
_audit_creation_method              ToposPro
_chemical_formula_structural        PAR-NT
_chemical_formula_sum               'Lr4 O17 Si8'
_citation_special_details
;
Space Group: C2/C->C 2/c. File: PAR-NT.cif. 
;
_cell_length_a                      21.555
_cell_length_b                      8.761
_cell_length_c                      9.304
_cell_angle_alpha                   90
_cell_angle_beta                    91.55
_cell_angle_gamma                   90
_cell_volume                        1756.356
_cell_formula_units_Z               4
_symmetry_space_group_name_H-M      'C 2/c'
_symmetry_Int_Tables_number         15
_refine_ls_R_factor_all             0
loop_
_symmetry_equiv_pos_site_id
_symmetry_equiv_pos_as_xyz
1 x,y,z
2 -x,y,1/2-z
3 -x,-y,-z
4 x,-y,1/2+z
5 1/2+x,1/2+y,z
6 1/2-x,1/2+y,1/2-z
7 1/2-x,1/2-y,-z
8 1/2+x,1/2-y,1/2+z
loop_
_atom_site_label
_atom_site_type_symbol
_atom_site_symmetry_multiplicity
_atom_site_fract_x
_atom_site_fract_y
_atom_site_fract_z
_atom_site_occupancy
O1 O 8 0.06950 0.01810 0.21620 1.0000
O2 O 8 0.07250 0.17190 0.46260 1.0000
O3 O 8 0.12220 0.28830 0.22950 1.0000
O4 O 8 0.17220 0.03630 0.02500 1.0000
O5 O 8 0.20810 0.46690 0.40960 1.0000
O6 O 8 0.23450 0.15500 0.36050 1.0000
O7 O 8 0.23400 0.35990 0.12210 1.0000
O8 O 8 0.35230 0.26730 0.29180 1.0000
O9 O 4 0.00000 0.26320 0.25000 1.0000
Si1 Si 8 0.06730 0.18320 0.28960 1.0000
Si2 Si 8 0.23980 0.00770 0.46210 1.0000
Si3 Si 8 0.19990 0.31620 0.28580 1.0000
Si4 Si 8 0.11610 0.08440 0.60060 1.0000
Lr1 Lr 8 0.18273 0.04509 0.27357 1.0000
Lr2 Lr 4 0.00000 0.25000 0.75000 1.0000
Lr3 Lr 4 0.25000 0.25000 0.00000 1.0000
loop_
_topos_bond_atom_site_label_1
_topos_bond_atom_site_label_2
_topos_bond_site_symmetry_1
_topos_bond_site_symmetry_2
_topos_bond_distance
_topos_bond_type
_topos_bond_multiplicity
O1 Si1 1_0_0_0 1_0_0_0 1.6010 V 8
O1 Si4 1_0_0_0 4_0_0_-1 1.7410 V 8
O2 Si1 1_0_0_0 1_0_0_0 1.6140 V 8
O2 Si4 1_0_0_0 1_0_0_0 1.7480 V 8
O3 Si1 1_0_0_0 1_0_0_0 1.6110 V 8
O3 Si3 1_0_0_0 1_0_0_0 1.7580 V 8
O4 Si2 1_0_0_0 4_0_0_-1 1.6310 V 8
O4 Si4 1_0_0_0 4_0_0_-1 1.7670 V 8
O5 Si3 1_0_0_0 1_0_0_0 1.7580 V 8
O5 Si2 1_0_0_0 7_0_0_1 1.6320 V 8
O6 Si2 1_0_0_0 1_0_0_0 1.6020 V 8
O6 Si3 1_0_0_0 1_0_0_0 1.7340 V 8
O7 Si3 1_0_0_0 1_0_0_0 1.7510 V 8
O7 Si2 1_0_0_0 6_0_0_0 1.6230 V 8
O8 Si4 1_0_0_0 7_0_0_1 1.7660 V 8
O9 Si1 1_0_0_0 1_0_0_0 1.6440 V 8
Lr2 Lr3 1_0_0_0 1_0_0_1 5.8110 V 8
Lr2 Lr2 1_0_0_0 3_0_1_2 6.3900 V 4
#End of data_169-TOPOS_PAR-NT

data_170-TOPOS_PAU-PPT1
_audit_creation_date                2025-02-23
_audit_creation_method              ToposPro
_chemical_formula_structural        PAU-PPT1
_chemical_formula_sum               'Lr13 O112 Si56'
_citation_special_details
;
Space Group: IM-3M->I m -3 m. File: PAU-PPT1.cif. 
;
_cell_length_a                      34.838
_cell_length_b                      34.838
_cell_length_c                      34.838
_cell_angle_alpha                   90
_cell_angle_beta                    90
_cell_angle_gamma                   90
_cell_volume                        42282.41
_cell_formula_units_Z               12
_symmetry_space_group_name_H-M      'I m -3 m'
_symmetry_Int_Tables_number         229
_refine_ls_R_factor_all             0
loop_
_symmetry_equiv_pos_site_id
_symmetry_equiv_pos_as_xyz
1 x,y,z
2 -x,-y,z
3 x,-y,-z
4 -x,y,-z
5 z,x,y
6 y,z,x
7 -z,-x,y
8 -y,z,-x
9 z,-x,-y
10 -y,-z,x
11 -z,x,-y
12 y,-z,-x
13 -y,-x,-z
14 y,x,-z
15 y,-x,z
16 -y,x,z
17 -x,-z,-y
18 -z,-y,-x
19 x,z,-y
20 -z,y,x
21 x,-z,y
22 z,y,-x
23 -x,z,y
24 z,-y,x
25 -x,-y,-z
26 x,y,-z
27 -x,y,z
28 x,-y,z
29 -z,-x,-y
30 -y,-z,-x
31 z,x,-y
32 y,-z,x
33 -z,x,y
34 y,z,-x
35 z,-x,y
36 -y,z,x
37 y,x,z
38 -y,-x,z
39 -y,x,-z
40 y,-x,-z
41 x,z,y
42 z,y,x
43 -x,-z,y
44 z,-y,-x
45 -x,z,-y
46 -z,-y,x
47 x,-z,-y
48 -z,y,-x
49 1/2+x,1/2+y,1/2+z
50 1/2-x,1/2-y,1/2+z
51 1/2+x,1/2-y,1/2-z
52 1/2-x,1/2+y,1/2-z
53 1/2+z,1/2+x,1/2+y
54 1/2+y,1/2+z,1/2+x
55 1/2-z,1/2-x,1/2+y
56 1/2-y,1/2+z,1/2-x
57 1/2+z,1/2-x,1/2-y
58 1/2-y,1/2-z,1/2+x
59 1/2-z,1/2+x,1/2-y
60 1/2+y,1/2-z,1/2-x
61 1/2-y,1/2-x,1/2-z
62 1/2+y,1/2+x,1/2-z
63 1/2+y,1/2-x,1/2+z
64 1/2-y,1/2+x,1/2+z
65 1/2-x,1/2-z,1/2-y
66 1/2-z,1/2-y,1/2-x
67 1/2+x,1/2+z,1/2-y
68 1/2-z,1/2+y,1/2+x
69 1/2+x,1/2-z,1/2+y
70 1/2+z,1/2+y,1/2-x
71 1/2-x,1/2+z,1/2+y
72 1/2+z,1/2-y,1/2+x
73 1/2-x,1/2-y,1/2-z
74 1/2+x,1/2+y,1/2-z
75 1/2-x,1/2+y,1/2+z
76 1/2+x,1/2-y,1/2+z
77 1/2-z,1/2-x,1/2-y
78 1/2-y,1/2-z,1/2-x
79 1/2+z,1/2+x,1/2-y
80 1/2+y,1/2-z,1/2+x
81 1/2-z,1/2+x,1/2+y
82 1/2+y,1/2+z,1/2-x
83 1/2+z,1/2-x,1/2+y
84 1/2-y,1/2+z,1/2+x
85 1/2+y,1/2+x,1/2+z
86 1/2-y,1/2-x,1/2+z
87 1/2-y,1/2+x,1/2-z
88 1/2+y,1/2-x,1/2-z
89 1/2+x,1/2+z,1/2+y
90 1/2+z,1/2+y,1/2+x
91 1/2-x,1/2-z,1/2+y
92 1/2+z,1/2-y,1/2-x
93 1/2-x,1/2+z,1/2-y
94 1/2-z,1/2-y,1/2+x
95 1/2+x,1/2-z,1/2-y
96 1/2-z,1/2+y,1/2-x
loop_
_atom_site_label
_atom_site_type_symbol
_atom_site_symmetry_multiplicity
_atom_site_fract_x
_atom_site_fract_y
_atom_site_fract_z
_atom_site_occupancy
O1 O 96 0.30640 0.23860 0.14270 1.0000
O2 O 96 0.30240 0.21460 0.07130 1.0000
O3 O 96 0.35740 0.26190 0.09200 1.0000
O4 O 96 0.42800 0.14220 0.05620 1.0000
O5 O 96 0.35700 0.16700 0.04990 1.0000
O6 O 96 0.41200 0.21430 0.07110 1.0000
O7 O 96 0.28570 0.14280 0.05580 1.0000
O8 O 96 0.21420 0.11890 0.05090 1.0000
O9 O 48 0.28630 0.28630 0.08780 1.0000
O10 O 48 0.14290 0.14290 0.05600 1.0000
O11 O 48 0.50000 0.12000 0.05120 1.0000
O12 O 48 0.44640 0.07050 0.07050 1.0000
O13 O 48 0.26890 0.07080 0.07080 1.0000
O14 O 48 0.15950 0.07080 0.07080 1.0000
O15 O 48 0.30220 0.21400 0.21400 1.0000
O16 O 48 0.44970 0.09680 0.00000 1.0000
O17 O 48 0.40920 0.18890 0.00000 1.0000
O18 O 48 0.30520 0.18980 0.00000 1.0000
O19 O 48 0.26510 0.09630 0.00000 1.0000
O20 O 48 0.16320 0.09660 0.00000 1.0000
Si1 Si 96 0.31310 0.25030 0.09850 1.0000
Si2 Si 96 0.45610 0.10750 0.04450 1.0000
Si3 Si 96 0.40150 0.17810 0.04430 1.0000
Si4 Si 96 0.31260 0.17850 0.04420 1.0000
Si5 Si 96 0.25850 0.10720 0.04440 1.0000
Si6 Si 96 0.17000 0.10730 0.04440 1.0000
Si7 Si 48 0.31290 0.25000 0.18710 1.0000
Si8 Si 48 0.40160 0.25000 0.09840 1.0000
Lr1 Lr 48 0.35502 0.35502 0.14277 1.0000
Lr2 Lr 16 0.17860 0.17860 0.17860 1.0000
Lr3 Lr 24 0.32594 0.32594 0.00000 1.0000
Lr4 Lr 24 0.21219 0.21219 0.00000 1.0000
Lr5 Lr 6 0.50000 0.00000 0.00000 1.0000
Lr6 Lr 12 0.50000 0.25000 0.00000 1.0000
Lr7 Lr 12 0.35717 0.00000 0.00000 1.0000
Lr8 Lr 12 0.21425 0.00000 0.00000 1.0000
Lr9 Lr 2 0.00000 0.00000 0.00000 1.0000
loop_
_topos_bond_atom_site_label_1
_topos_bond_atom_site_label_2
_topos_bond_site_symmetry_1
_topos_bond_site_symmetry_2
_topos_bond_distance
_topos_bond_type
_topos_bond_multiplicity
O1 Si1 1_0_0_0 1_0_0_0 1.6100 V 96
O1 Si7 1_0_0_0 1_0_0_0 1.6130 V 96
O2 Si1 1_0_0_0 1_0_0_0 1.6070 V 96
O2 Si4 1_0_0_0 1_0_0_0 1.6120 V 96
O3 Si8 1_0_0_0 1_0_0_0 1.6100 V 96
O3 Si1 1_0_0_0 1_0_0_0 1.6110 V 96
O4 Si2 1_0_0_0 1_0_0_0 1.6080 V 96
O4 Si3 1_0_0_0 1_0_0_0 1.6090 V 96
O5 Si3 1_0_0_0 1_0_0_0 1.6100 V 96
O5 Si4 1_0_0_0 1_0_0_0 1.6100 V 96
O6 Si8 1_0_0_0 1_0_0_0 1.6070 V 96
O6 Si3 1_0_0_0 1_0_0_0 1.6110 V 96
O7 Si4 1_0_0_0 1_0_0_0 1.6090 V 96
O7 Si5 1_0_0_0 1_0_0_0 1.6110 V 96
O8 Si6 1_0_0_0 1_0_0_0 1.6080 V 96
O8 Si5 1_0_0_0 1_0_0_0 1.6120 V 96
O9 Si1 1_0_0_0 1_0_0_0 1.6070 V 96
O10 Si6 1_0_0_0 1_0_0_0 1.6100 V 96
O11 Si2 1_0_0_0 1_0_0_0 1.6070 V 96
O12 Si2 1_0_0_0 1_0_0_0 1.6110 V 96
O13 Si5 1_0_0_0 1_0_0_0 1.6080 V 96
O14 Si6 1_0_0_0 1_0_0_0 1.6110 V 96
O15 Si7 1_0_0_0 41_0_0_0 1.6090 V 96
O16 Si2 1_0_0_0 1_0_0_0 1.6100 V 96
O17 Si3 1_0_0_0 1_0_0_0 1.6110 V 96
O18 Si4 1_0_0_0 1_0_0_0 1.6100 V 96
O19 Si5 1_0_0_0 1_0_0_0 1.6090 V 96
O20 Si6 1_0_0_0 1_0_0_0 1.6090 V 96
Lr1 Lr3 1_0_0_0 1_0_0_0 5.1760 V 48
Lr1 Lr7 1_0_0_0 56_0_0_0 7.1430 V 48
Lr1 Lr2 1_0_0_0 61_0_0_0 6.4400 V 48
Lr2 Lr4 1_0_0_0 5_0_0_0 6.4380 V 48
Lr3 Lr4 1_0_0_0 1_0_0_0 5.6040 V 24
Lr3 Lr6 1_0_0_0 14_0_0_0 6.6160 V 48
Lr5 Lr7 1_0_0_0 1_0_0_0 4.9760 V 12
Lr7 Lr8 1_0_0_0 1_0_0_0 4.9790 V 12
Lr8 Lr9 1_0_0_0 1_0_0_0 7.4640 V 12
#End of data_170-TOPOS_PAU-PPT1

data_171-TOPOS_PCR-NT
_audit_creation_date                2025-02-23
_audit_creation_method              ToposPro
_chemical_formula_structural        PCR-NT
_chemical_formula_sum               'Lr7 O30 Si15'
_citation_special_details
;
Space Group: C2/M->C 2/m. File: PCR-NT.cif. 
;
_cell_length_a                      20.1437
_cell_length_b                      14.0723
_cell_length_c                      12.5223
_cell_angle_alpha                   90
_cell_angle_beta                    115.651
_cell_angle_gamma                   90
_cell_volume                        3199.845
_cell_formula_units_Z               4
_symmetry_space_group_name_H-M      'C 2/m'
_symmetry_Int_Tables_number         12
_refine_ls_R_factor_all             0
loop_
_symmetry_equiv_pos_site_id
_symmetry_equiv_pos_as_xyz
1 x,y,z
2 -x,y,-z
3 -x,-y,-z
4 x,-y,z
5 1/2+x,1/2+y,z
6 1/2-x,1/2+y,-z
7 1/2-x,1/2-y,-z
8 1/2+x,1/2-y,z
loop_
_atom_site_label
_atom_site_type_symbol
_atom_site_symmetry_multiplicity
_atom_site_fract_x
_atom_site_fract_y
_atom_site_fract_z
_atom_site_occupancy
O1 O 8 0.82700 0.90620 0.74500 1.0000
O2 O 8 0.86880 0.73090 0.72830 1.0000
O3 O 8 0.84370 0.78100 0.90900 1.0000
O4 O 8 0.73320 0.76440 0.69810 1.0000
O5 O 8 0.39320 0.24560 0.13520 1.0000
O6 O 8 0.39740 0.09280 0.25780 1.0000
O7 O 8 0.40640 0.26160 0.35270 1.0000
O8 O 8 0.51670 0.19820 0.31530 1.0000
O9 O 8 0.17390 0.90730 0.94970 1.0000
O10 O 8 0.17390 0.90660 0.64450 1.0000
O11 O 8 0.13780 0.77350 0.47970 1.0000
O12 O 8 0.13450 0.59370 0.41690 1.0000
O13 O 4 0.25000 0.75000 0.00000 1.0000
O14 O 4 0.70560 0.00000 0.31590 1.0000
O15 O 4 0.75670 0.00000 0.15430 1.0000
O16 O 4 0.79330 0.50000 0.28680 1.0000
O17 O 4 0.74570 0.50000 0.45210 1.0000
O18 O 4 0.79630 0.50000 0.07820 1.0000
Si1 Si 8 0.81800 0.79560 0.76920 1.0000
Si2 Si 8 0.42850 0.19900 0.26540 1.0000
Si3 Si 8 0.17190 0.79580 0.97650 1.0000
Si4 Si 8 0.16030 0.79470 0.61740 1.0000
Si5 Si 8 0.10520 0.69930 0.37130 1.0000
Si6 Si 4 0.77880 0.00000 0.29420 1.0000
Si7 Si 4 0.22130 0.00000 0.31140 1.0000
Si8 Si 4 0.34550 0.00000 0.21930 1.0000
Si9 Si 4 0.22230 0.00000 0.95590 1.0000
Si10 Si 4 0.31810 0.00000 0.57670 1.0000
Lr1 Lr 8 0.72009 0.85024 0.82933 1.0000
Lr2 Lr 8 0.75118 0.66667 0.51043 1.0000
Lr3 Lr 4 0.52381 0.50000 0.33613 1.0000
Lr4 Lr 2 0.00000 0.50000 0.00000 1.0000
Lr5 Lr 2 0.50000 0.00000 0.50000 1.0000
Lr6 Lr 2 0.00000 0.00000 0.00000 1.0000
Lr7 Lr 2 0.50000 0.50000 0.50000 1.0000
loop_
_topos_bond_atom_site_label_1
_topos_bond_atom_site_label_2
_topos_bond_site_symmetry_1
_topos_bond_site_symmetry_2
_topos_bond_distance
_topos_bond_type
_topos_bond_multiplicity
O1 Si1 1_0_0_0 1_0_0_0 1.6110 V 8
O1 Si7 1_0_0_0 2_1_1_1 1.6100 V 8
O2 Si1 1_0_0_0 1_0_0_0 1.6100 V 8
O2 Si5 1_0_0_0 2_1_0_1 1.6100 V 8
O3 Si1 1_0_0_0 1_0_0_0 1.6090 V 8
O3 Si3 1_0_0_0 2_1_0_2 1.6090 V 8
O4 Si1 1_0_0_0 1_0_0_0 1.6080 V 8
O4 Si4 1_0_0_0 8_0_1_0 1.6080 V 8
O5 Si2 1_0_0_0 1_0_0_0 1.6090 V 8
O5 Si3 1_0_0_0 6_0_-1_1 1.6080 V 8
O6 Si2 1_0_0_0 1_0_0_0 1.6070 V 8
O6 Si8 1_0_0_0 1_0_0_0 1.6110 V 8
O7 Si2 1_0_0_0 1_0_0_0 1.6100 V 8
O7 Si4 1_0_0_0 6_0_-1_1 1.6120 V 8
O8 Si2 1_0_0_0 1_0_0_0 1.6080 V 8
O8 Si5 1_0_0_0 5_0_-1_0 1.6090 V 8
O9 Si3 1_0_0_0 1_0_0_0 1.6090 V 8
O9 Si9 1_0_0_0 1_0_1_0 1.6100 V 8
O10 Si4 1_0_0_0 1_0_0_0 1.6090 V 8
O10 Si6 1_0_0_0 2_1_1_1 1.6100 V 8
O11 Si4 1_0_0_0 1_0_0_0 1.6100 V 8
O11 Si5 1_0_0_0 1_0_0_0 1.6100 V 8
O12 Si5 1_0_0_0 1_0_0_0 1.6100 V 8
O12 Si10 1_0_0_0 6_0_0_1 1.6090 V 8
O13 Si3 1_0_0_0 1_0_0_-1 1.6050 V 8
O14 Si6 1_0_0_0 1_0_0_0 1.6110 V 4
O14 Si10 1_0_0_0 2_1_0_1 1.6100 V 4
O15 Si6 1_0_0_0 1_0_0_0 1.6100 V 4
O15 Si9 1_0_0_0 2_1_0_1 1.6090 V 4
O16 Si7 1_0_0_0 5_0_0_0 1.6080 V 4
O16 Si8 1_0_0_0 5_0_0_0 1.6090 V 4
O17 Si7 1_0_0_0 5_0_0_0 1.6110 V 4
O17 Si10 1_0_0_0 5_0_0_0 1.6100 V 4
O18 Si8 1_0_0_0 5_0_0_0 1.6090 V 4
O18 Si9 1_0_0_0 5_0_0_-1 1.6100 V 4
Lr2 Lr2 1_0_0_0 7_1_1_1 2.3580 V 4
Lr3 Lr7 1_0_0_0 1_0_0_0 2.3010 V 4
Lr3 Lr6 1_0_0_0 5_0_0_0 4.0250 V 4
Lr4 Lr6 1_0_0_0 1_0_0_0 7.0360 V 4
#End of data_171-TOPOS_PCR-NT

data_172-TOPOS_PHI-PPT1
_audit_creation_date                2025-02-23
_audit_creation_method              ToposPro
_chemical_formula_structural        PHI-PPT1
_chemical_formula_sum               'Lr1 O8 Si4'
_citation_special_details
;
Space Group: CMCM->C m c m. File: PHI-PPT1.cif. 
;
_cell_length_a                      9.89
_cell_length_b                      14.064
_cell_length_c                      14.046
_cell_angle_alpha                   90
_cell_angle_beta                    90
_cell_angle_gamma                   90
_cell_volume                        1953.7
_cell_formula_units_Z               8
_symmetry_space_group_name_H-M      'C m c m'
_symmetry_Int_Tables_number         63
_refine_ls_R_factor_all             0
loop_
_symmetry_equiv_pos_site_id
_symmetry_equiv_pos_as_xyz
1 x,y,z
2 -x,-y,1/2+z
3 x,-y,-z
4 -x,y,1/2-z
5 -x,-y,-z
6 x,y,1/2-z
7 -x,y,z
8 x,-y,1/2+z
9 1/2+x,1/2+y,z
10 1/2-x,1/2-y,1/2+z
11 1/2+x,1/2-y,-z
12 1/2-x,1/2+y,1/2-z
13 1/2-x,1/2-y,-z
14 1/2+x,1/2+y,1/2-z
15 1/2-x,1/2+y,z
16 1/2+x,1/2-y,1/2+z
loop_
_atom_site_label
_atom_site_type_symbol
_atom_site_symmetry_multiplicity
_atom_site_fract_x
_atom_site_fract_y
_atom_site_fract_z
_atom_site_occupancy
O1 O 16 0.17930 0.16940 0.57730 1.0000
O2 O 16 0.24730 0.15270 0.39710 1.0000
O3 O 8 0.00000 0.11150 0.45160 1.0000
O4 O 8 0.00000 0.29660 0.63090 1.0000
O5 O 8 0.20210 0.00000 0.50000 1.0000
O6 O 8 0.18910 0.24080 0.75000 1.0000
Si1 Si 16 0.15700 0.10840 0.48160 1.0000
Si2 Si 16 0.15530 0.26350 0.64020 1.0000
Lr1 Lr 4 0.00000 0.99325 0.25000 1.0000
Lr2 Lr 4 0.00000 0.39082 0.25000 1.0000
loop_
_topos_bond_atom_site_label_1
_topos_bond_atom_site_label_2
_topos_bond_site_symmetry_1
_topos_bond_site_symmetry_2
_topos_bond_distance
_topos_bond_type
_topos_bond_multiplicity
O1 Si2 1_0_0_0 1_0_0_0 1.6090 V 16
O1 Si1 1_0_0_0 1_0_0_0 1.6100 V 16
O2 Si1 1_0_0_0 1_0_0_0 1.6110 V 16
O2 Si2 1_0_0_0 13_0_0_1 1.6100 V 16
O3 Si1 1_0_0_0 1_0_0_0 1.6090 V 16
O4 Si2 1_0_0_0 1_0_0_0 1.6100 V 16
O5 Si1 1_0_0_0 1_0_0_0 1.6090 V 16
O6 Si2 1_0_0_0 1_0_0_0 1.6100 V 16
Lr1 Lr2 1_0_0_0 9_-1_0_0 5.1510 V 8
Lr1 Lr2 1_0_0_0 1_0_1_0 5.5910 V 4
Lr2 Lr2 1_0_0_0 2_0_1_-1 7.6650 V 4
#End of data_172-TOPOS_PHI-PPT1

data_173-TOPOS_PON-NT
_audit_creation_date                2025-02-23
_audit_creation_method              ToposPro
_chemical_formula_structural        PON-NT
_chemical_formula_sum               'Lr7 O12 Si6'
_citation_special_details
;
Space Group: PCA21->P c a 21. File: PON-NT.cif. 
;
_cell_length_a                      8.914
_cell_length_b                      9.209
_cell_length_c                      16.087
_cell_angle_alpha                   90
_cell_angle_beta                    90
_cell_angle_gamma                   90
_cell_volume                        1320.566
_cell_formula_units_Z               4
_symmetry_space_group_name_H-M      'P c a 21'
_symmetry_Int_Tables_number         29
_refine_ls_R_factor_all             0
loop_
_symmetry_equiv_pos_site_id
_symmetry_equiv_pos_as_xyz
1 x,y,z
2 -x,-y,1/2+z
3 1/2-x,y,1/2+z
4 1/2+x,-y,z
loop_
_atom_site_label
_atom_site_type_symbol
_atom_site_symmetry_multiplicity
_atom_site_fract_x
_atom_site_fract_y
_atom_site_fract_z
_atom_site_occupancy
O1 O 4 0.33520 0.85570 0.38750 1.0000
O2 O 4 0.09310 0.74550 0.45720 1.0000
O3 O 4 0.09020 0.81300 0.29950 1.0000
O4 O 4 0.09760 0.01980 0.41270 1.0000
O5 O 4 0.14140 0.36210 0.80840 1.0000
O6 O 4 0.87110 0.46630 0.77840 1.0000
O7 O 4 0.01180 0.31510 0.66410 1.0000
O8 O 4 0.98600 0.76250 0.00680 1.0000
O9 O 4 0.22600 0.64060 0.07000 1.0000
O10 O 4 0.98610 0.48450 0.04640 1.0000
O11 O 4 0.08550 0.28300 0.35110 1.0000
O12 O 4 0.22250 0.49340 0.43200 1.0000
Si1 Si 4 0.15480 0.85930 0.38920 1.0000
Si2 Si 4 0.04530 0.64340 0.07220 1.0000
Si3 Si 4 0.19920 0.41810 0.34260 1.0000
Si4 Si 4 0.98410 0.33280 0.76240 1.0000
Si5 Si 4 0.15020 0.59850 0.50120 1.0000
Si6 Si 4 0.00690 0.17090 0.41440 1.0000
Lr1 Lr 4 0.32030 0.61241 0.35926 1.0000
Lr2 Lr 4 0.97489 0.55473 0.41591 1.0000
Lr3 Lr 4 0.38299 0.60901 0.40351 1.0000
Lr4 Lr 4 0.20568 0.99045 0.67986 1.0000
Lr5 Lr 4 0.04624 0.54361 0.91951 1.0000
Lr6 Lr 4 0.65915 0.79354 0.08027 1.0000
Lr7 Lr 4 0.39904 0.79623 0.19190 1.0000
loop_
_topos_bond_atom_site_label_1
_topos_bond_atom_site_label_2
_topos_bond_site_symmetry_1
_topos_bond_site_symmetry_2
_topos_bond_distance
_topos_bond_type
_topos_bond_multiplicity
O1 Si1 1_0_0_0 1_0_0_0 1.6090 V 4
O1 Si6 1_0_0_0 4_0_1_0 1.6090 V 4
O2 Si5 1_0_0_0 1_0_0_0 1.6100 V 4
O2 Si1 1_0_0_0 1_0_0_0 1.6120 V 4
O3 Si1 1_0_0_0 1_0_0_0 1.6110 V 4
O3 Si4 1_0_0_0 2_1_1_-1 1.6120 V 4
O4 Si6 1_0_0_0 1_0_0_0 1.6100 V 4
O4 Si1 1_0_0_0 1_0_-1_0 1.6090 V 4
O5 Si4 1_0_0_0 1_-1_0_0 1.6080 V 4
O5 Si3 1_0_0_0 3_0_0_0 1.6090 V 4
O6 Si4 1_0_0_0 1_0_0_0 1.6100 V 4
O6 Si3 1_0_0_0 2_1_1_0 1.6100 V 4
O7 Si4 1_0_0_0 1_-1_0_0 1.6090 V 4
O7 Si2 1_0_0_0 2_0_1_0 1.6100 V 4
O8 Si2 1_0_0_0 1_1_0_0 1.6090 V 4
O8 Si6 1_0_0_0 2_1_1_-1 1.6090 V 4
O9 Si2 1_0_0_0 1_0_0_0 1.6110 V 4
O9 Si5 1_0_0_0 3_0_0_-1 1.6100 V 4
O10 Si5 1_0_0_0 2_1_1_-1 1.6090 V 4
O10 Si2 1_0_0_0 1_1_0_0 1.6100 V 4
O11 Si6 1_0_0_0 1_0_0_0 1.6100 V 4
O11 Si3 1_0_0_0 1_0_0_0 1.6110 V 4
O12 Si5 1_0_0_0 1_0_0_0 1.6100 V 4
O12 Si3 1_0_0_0 1_0_0_0 1.6100 V 4
Lr1 Lr3 1_0_0_0 1_0_0_0 0.9060 V 4
Lr2 Lr5 1_0_0_0 2_1_1_-1 0.9270 V 4
Lr3 Lr5 1_0_0_0 3_0_0_-1 0.9090 V 4
Lr4 Lr7 1_0_0_0 3_0_0_0 2.0270 V 4
Lr4 Lr6 1_0_0_0 2_1_2_0 2.8240 V 4
Lr6 Lr7 1_0_0_0 1_0_0_0 2.9330 V 4
#End of data_173-TOPOS_PON-NT

data_174-TOPOS_POR-PPT1
_audit_creation_date                2025-02-23
_audit_creation_method              ToposPro
_chemical_formula_structural        POR-PPT1
_chemical_formula_sum               'Lr17 O64 Si32'
_citation_special_details
;
Space Group: P42/NMC->P 42/n m c. File: POR-PPT1.cif. 
;
_cell_length_a                      14.0966
_cell_length_b                      14.0966
_cell_length_c                      18.3338
_cell_angle_alpha                   90
_cell_angle_beta                    90
_cell_angle_gamma                   90
_cell_volume                        3643.185
_cell_formula_units_Z               2
_symmetry_space_group_name_H-M      'P 42/n m c'
_symmetry_Int_Tables_number         137
_refine_ls_R_factor_all             0
loop_
_symmetry_equiv_pos_site_id
_symmetry_equiv_pos_as_xyz
1 x,y,z
2 -x,-y,z
3 1/2+x,1/2-y,1/2-z
4 1/2-x,1/2+y,1/2-z
5 -y,-x,-z
6 y,x,-z
7 1/2+y,1/2-x,1/2+z
8 1/2-y,1/2+x,1/2+z
9 1/2-x,1/2-y,1/2-z
10 1/2+x,1/2+y,1/2-z
11 -x,y,z
12 x,-y,z
13 1/2+y,1/2+x,1/2+z
14 1/2-y,1/2-x,1/2+z
15 -y,x,-z
16 y,-x,-z
loop_
_atom_site_label
_atom_site_type_symbol
_atom_site_symmetry_multiplicity
_atom_site_fract_x
_atom_site_fract_y
_atom_site_fract_z
_atom_site_occupancy
O1 O 16 0.83454 0.33653 0.36023 1.0000
O2 O 16 0.83805 0.37254 0.50066 1.0000
O3 O 16 0.82125 0.15270 0.35909 1.0000
O4 O 16 0.66721 0.25392 0.37810 1.0000
O5 O 8 0.89603 0.50000 0.40604 1.0000
O6 O 8 0.27434 0.50000 0.56072 1.0000
O7 O 8 0.00000 0.34967 0.42893 1.0000
O8 O 8 0.00000 0.84363 0.40488 1.0000
O9 O 8 0.75000 0.25000 0.25000 1.0000
O10 O 8 0.34770 0.34770 0.50000 1.0000
O11 O 8 0.86158 0.86158 0.50000 1.0000
O12 O 8 0.90227 0.00000 0.40943 1.0000
Si1 Si 16 0.89260 0.38846 0.42448 1.0000
Si2 Si 16 0.76768 0.24924 0.33654 1.0000
Si3 Si 16 0.25891 0.38869 0.54539 1.0000
Si4 Si 16 0.89552 0.88679 0.41837 1.0000
Lr1 Lr 16 0.79225 0.24790 0.48921 1.0000
Lr2 Lr 8 0.00000 0.24855 0.27765 1.0000
Lr3 Lr 4 0.00000 0.50000 0.59136 1.0000
Lr4 Lr 4 0.50000 0.50000 0.33435 1.0000
Lr5 Lr 2 0.00000 0.00000 0.50000 1.0000
loop_
_topos_bond_atom_site_label_1
_topos_bond_atom_site_label_2
_topos_bond_site_symmetry_1
_topos_bond_site_symmetry_2
_topos_bond_distance
_topos_bond_type
_topos_bond_multiplicity
O1 Si2 1_0_0_0 1_0_0_0 1.6100 V 16
O1 Si1 1_0_0_0 1_0_0_0 1.6100 V 16
O2 Si1 1_0_0_0 1_0_0_0 1.6100 V 16
O2 Si3 1_0_0_0 11_1_0_0 1.6100 V 16
O3 Si2 1_0_0_0 1_0_0_0 1.6100 V 16
O3 Si4 1_0_0_0 12_0_1_0 1.6080 V 16
O4 Si2 1_0_0_0 1_0_0_0 1.6100 V 16
O4 Si3 1_0_0_0 15_1_0_1 1.6100 V 16
O5 Si1 1_0_0_0 1_0_0_0 1.6090 V 16
O6 Si3 1_0_0_0 1_0_0_0 1.6090 V 16
O7 Si1 1_0_0_0 1_-1_0_0 1.6120 V 16
O8 Si4 1_0_0_0 1_-1_0_0 1.6130 V 16
O9 Si2 1_0_0_0 1_0_0_0 1.6060 V 16
O10 Si3 1_0_0_0 1_0_0_0 1.6100 V 16
O11 Si4 1_0_0_0 1_0_0_0 1.6110 V 16
O12 Si4 1_0_0_0 1_0_-1_0 1.6070 V 16
Lr1 Lr1 1_0_0_0 5_1_1_1 0.8930 V 8
Lr2 Lr3 1_0_0_0 7_-1_0_-1 4.9220 V 8
Lr2 Lr4 1_0_0_0 3_-1_0_0 4.0610 V 8
Lr3 Lr4 1_0_0_0 7_-1_0_0 8.3380 V 8
Lr4 Lr4 1_0_0_0 5_1_1_1 6.0740 V 2
#End of data_174-TOPOS_POR-PPT1

data_175-TOPOS_POS-PPT1
_audit_creation_date                2025-02-23
_audit_creation_method              ToposPro
_chemical_formula_structural        POS-PPT1
_chemical_formula_sum               'Lr5 O16 Si8'
_citation_special_details
;
Space Group: P42/MNM->P 42/m n m. File: POS-PPT1.cif. 
;
_cell_length_a                      18.7661
_cell_length_b                      18.7661
_cell_length_c                      11.6939
_cell_angle_alpha                   90
_cell_angle_beta                    90
_cell_angle_gamma                   90
_cell_volume                        4118.2
_cell_formula_units_Z               8
_symmetry_space_group_name_H-M      'P 42/m n m'
_symmetry_Int_Tables_number         136
_refine_ls_R_factor_all             0
loop_
_symmetry_equiv_pos_site_id
_symmetry_equiv_pos_as_xyz
1 x,y,z
2 -x,-y,z
3 1/2+x,1/2-y,1/2-z
4 1/2-x,1/2+y,1/2-z
5 -y,-x,-z
6 y,x,-z
7 1/2+y,1/2-x,1/2+z
8 1/2-y,1/2+x,1/2+z
9 -x,-y,-z
10 x,y,-z
11 1/2-x,1/2+y,1/2+z
12 1/2+x,1/2-y,1/2+z
13 y,x,z
14 -y,-x,z
15 1/2-y,1/2+x,1/2-z
16 1/2+y,1/2-x,1/2-z
loop_
_atom_site_label
_atom_site_type_symbol
_atom_site_symmetry_multiplicity
_atom_site_fract_x
_atom_site_fract_y
_atom_site_fract_z
_atom_site_occupancy
O1 O 16 0.13611 0.03719 0.18121 1.0000
O2 O 16 0.23909 0.94418 0.21207 1.0000
O3 O 16 0.16484 0.99098 0.38777 1.0000
O4 O 16 0.25506 0.07561 0.28585 1.0000
O5 O 16 0.33731 0.18158 0.35565 1.0000
O6 O 8 0.19953 0.19953 0.33379 1.0000
O7 O 8 0.31980 0.31980 0.33073 1.0000
O8 O 8 0.24971 0.11938 0.50000 1.0000
O9 O 8 0.39776 0.27032 0.50000 1.0000
O10 O 4 0.00000 0.00000 0.18251 1.0000
O11 O 4 0.05726 0.05726 0.00000 1.0000
O12 O 4 0.05313 0.94687 0.50000 1.0000
O13 O 4 0.08268 0.08268 0.50000 1.0000
Si1 Si 16 0.19875 0.01200 0.26596 1.0000
Si2 Si 16 0.26078 0.14372 0.36917 1.0000
Si3 Si 16 0.37479 0.25837 0.36873 1.0000
Si4 Si 8 0.05736 0.05736 0.13741 1.0000
Si5 Si 8 0.11698 0.00393 0.50000 1.0000
Lr1 Lr 4 0.00000 0.00000 0.33387 1.0000
Lr2 Lr 4 0.25625 0.25625 0.00000 1.0000
Lr3 Lr 4 0.25942 0.25942 0.50000 1.0000
Lr4 Lr 4 0.12218 0.12218 0.50000 1.0000
Lr5 Lr 4 0.40773 0.40773 0.50000 1.0000
Lr6 Lr 4 0.50000 0.00000 0.50000 1.0000
Lr7 Lr 8 0.08333 0.91667 0.25866 1.0000
Lr8 Lr 8 0.29189 0.12908 0.00000 1.0000
loop_
_topos_bond_atom_site_label_1
_topos_bond_atom_site_label_2
_topos_bond_site_symmetry_1
_topos_bond_site_symmetry_2
_topos_bond_distance
_topos_bond_type
_topos_bond_multiplicity
O1 Si1 1_0_0_0 1_0_0_0 1.6090 V 16
O1 Si4 1_0_0_0 1_0_0_0 1.6090 V 16
O2 Si1 1_0_0_0 1_0_1_0 1.6090 V 16
O2 Si3 1_0_0_0 15_0_0_0 1.6100 V 16
O3 Si5 1_0_0_0 1_0_1_0 1.6090 V 16
O3 Si1 1_0_0_0 1_0_1_0 1.6090 V 16
O4 Si2 1_0_0_0 1_0_0_0 1.6110 V 16
O4 Si1 1_0_0_0 1_0_0_0 1.6110 V 16
O5 Si2 1_0_0_0 1_0_0_0 1.6100 V 16
O5 Si3 1_0_0_0 1_0_0_0 1.6110 V 16
O6 Si2 1_0_0_0 1_0_0_0 1.6090 V 16
O7 Si3 1_0_0_0 1_0_0_0 1.6100 V 16
O8 Si2 1_0_0_0 1_0_0_0 1.6100 V 16
O9 Si3 1_0_0_0 1_0_0_0 1.6100 V 16
O10 Si4 1_0_0_0 1_0_0_0 1.6110 V 8
O11 Si4 1_0_0_0 1_0_0_0 1.6070 V 8
O12 Si5 1_0_0_0 1_0_1_0 1.6070 V 8
O13 Si5 1_0_0_0 1_0_0_0 1.6120 V 8
Lr1 Lr7 1_0_0_0 2_0_1_0 2.3800 V 8
Lr2 Lr8 1_0_0_0 1_0_0_0 2.4780 V 8
Lr6 Lr8 1_0_0_0 7_0_0_0 4.5960 V 8
Lr6 Lr6 1_0_0_0 7_0_0_0 5.8470 V 4
#End of data_175-TOPOS_POS-PPT1

data_176-TOPOS_PSI-PPT1
_audit_creation_date                2025-02-23
_audit_creation_method              ToposPro
_chemical_formula_structural        PSI-PPT1
_chemical_formula_sum               'Lr1 O2 Si1'
_citation_special_details
;
Space Group: CMCA->C m c a. File: PSI-PPT1.cif. 
;
_cell_length_a                      8.2281
_cell_length_b                      22.4563
_cell_length_c                      37.8911
_cell_angle_alpha                   90
_cell_angle_beta                    90
_cell_angle_gamma                   90
_cell_volume                        7001.241
_cell_formula_units_Z               144
_symmetry_space_group_name_H-M      'C m c a'
_symmetry_Int_Tables_number         64
_refine_ls_R_factor_all             0
loop_
_symmetry_equiv_pos_site_id
_symmetry_equiv_pos_as_xyz
1 x,y,z
2 1/2-x,-y,1/2+z
3 x,-y,-z
4 1/2-x,y,1/2-z
5 -x,-y,-z
6 1/2+x,y,1/2-z
7 -x,y,z
8 1/2+x,-y,1/2+z
9 1/2+x,1/2+y,z
10 -x,1/2-y,1/2+z
11 1/2+x,1/2-y,-z
12 -x,1/2+y,1/2-z
13 1/2-x,1/2-y,-z
14 x,1/2+y,1/2-z
15 1/2-x,1/2+y,z
16 x,1/2-y,1/2+z
loop_
_atom_site_label
_atom_site_type_symbol
_atom_site_symmetry_multiplicity
_atom_site_fract_x
_atom_site_fract_y
_atom_site_fract_z
_atom_site_occupancy
O1 O 16 0.25730 0.04249 0.55262 1.0000
O2 O 16 0.20341 0.13727 0.51419 1.0000
O3 O 16 0.29032 0.14921 0.58077 1.0000
O4 O 16 0.24101 0.11606 0.64631 1.0000
O5 O 16 0.30277 0.01152 0.61844 1.0000
O6 O 16 0.20289 0.01796 0.68373 1.0000
O7 O 16 0.19835 0.32971 0.54927 1.0000
O8 O 16 0.21139 0.22877 0.62902 1.0000
O9 O 16 0.29115 0.40957 0.79757 1.0000
O10 O 16 0.21729 0.30120 0.81807 1.0000
O11 O 16 0.26166 0.34279 0.61717 1.0000
O12 O 16 0.30192 0.43235 0.57301 1.0000
O13 O 8 0.00000 0.10858 0.56507 1.0000
O14 O 8 0.00000 0.04271 0.63218 1.0000
O15 O 8 0.00000 0.32236 0.49502 1.0000
O16 O 8 0.00000 0.36739 0.78544 1.0000
O17 O 8 0.00000 0.49813 0.70670 1.0000
O18 O 8 0.00000 0.30858 0.65085 1.0000
O19 O 8 0.00000 0.47142 0.56929 1.0000
O20 O 8 0.25000 0.25000 0.50000 1.0000
O21 O 8 0.50000 0.17900 0.63026 1.0000
O22 O 8 0.50000 0.34080 0.57110 1.0000
O23 O 8 0.25000 0.32603 0.75000 1.0000
O24 O 8 0.25000 0.49372 0.75000 1.0000
Si1 Si 16 0.18785 0.10953 0.55324 1.0000
Si2 Si 16 0.18596 0.04728 0.64514 1.0000
Si3 Si 16 0.18615 0.31635 0.50761 1.0000
Si4 Si 16 0.31086 0.16837 0.62148 1.0000
Si5 Si 16 0.18972 0.35048 0.78778 1.0000
Si6 Si 16 0.18801 0.47949 0.71065 1.0000
Si7 Si 16 0.18986 0.29490 0.64468 1.0000
Si8 Si 16 0.31497 0.36127 0.57780 1.0000
Si9 Si 16 0.18514 0.48920 0.57814 1.0000
Lr1 Lr 8 0.00000 0.07859 0.59950 1.0000
Lr2 Lr 8 0.00000 0.15502 0.61614 1.0000
Lr3 Lr 8 0.00000 0.23901 0.56620 1.0000
Lr4 Lr 8 0.00000 0.18707 0.49386 1.0000
Lr5 Lr 8 0.00000 0.00182 0.58858 1.0000
Lr6 Lr 8 0.00000 0.96418 0.71434 1.0000
Lr7 Lr 8 0.00000 0.92044 0.64477 1.0000
Lr8 Lr 8 0.00000 0.16810 0.75000 1.0000
Lr9 Lr 8 0.00000 0.36543 0.57706 1.0000
Lr10 Lr 8 0.00000 0.36884 0.71383 1.0000
Lr11 Lr 8 0.50000 0.07859 0.59950 1.0000
Lr12 Lr 8 0.50000 0.41499 0.75000 1.0000
Lr13 Lr 8 0.50000 0.11269 0.56131 1.0000
Lr14 Lr 8 0.50000 0.23901 0.56620 1.0000
Lr15 Lr 8 0.50000 0.92044 0.64477 1.0000
Lr16 Lr 8 0.50000 0.04609 0.63885 1.0000
Lr17 Lr 8 0.50000 0.29375 0.63905 1.0000
Lr18 Lr 4 0.00000 0.00000 0.50000 1.0000
Lr19 Lr 4 0.50000 0.00000 0.50000 1.0000
loop_
_topos_bond_atom_site_label_1
_topos_bond_atom_site_label_2
_topos_bond_site_symmetry_1
_topos_bond_site_symmetry_2
_topos_bond_distance
_topos_bond_type
_topos_bond_multiplicity
O1 Si1 1_0_0_0 1_0_0_0 1.6100 V 16
O1 Si9 1_0_0_0 15_0_-1_0 1.6100 V 16
O2 Si1 1_0_0_0 1_0_0_0 1.6110 V 16
O2 Si3 1_0_0_0 13_0_0_1 1.6100 V 16
O3 Si1 1_0_0_0 1_0_0_0 1.6100 V 16
O3 Si4 1_0_0_0 1_0_0_0 1.6100 V 16
O4 Si2 1_0_0_0 1_0_0_0 1.6100 V 16
O4 Si4 1_0_0_0 1_0_0_0 1.6110 V 16
O5 Si2 1_0_0_0 1_0_0_0 1.6100 V 16
O5 Si9 1_0_0_0 15_0_-1_0 1.6100 V 16
O6 Si2 1_0_0_0 1_0_0_0 1.6100 V 16
O6 Si6 1_0_0_0 15_0_-1_0 1.6100 V 16
O7 Si8 1_0_0_0 1_0_0_0 1.6100 V 16
O7 Si3 1_0_0_0 1_0_0_0 1.6100 V 16
O8 Si7 1_0_0_0 1_0_0_0 1.6090 V 16
O8 Si4 1_0_0_0 1_0_0_0 1.6100 V 16
O9 Si5 1_0_0_0 1_0_0_0 1.6110 V 16
O9 Si6 1_0_0_0 4_0_0_1 1.6100 V 16
O10 Si5 1_0_0_0 1_0_0_0 1.6100 V 16
O10 Si7 1_0_0_0 4_0_0_1 1.6110 V 16
O11 Si8 1_0_0_0 1_0_0_0 1.6090 V 16
O11 Si7 1_0_0_0 1_0_0_0 1.6100 V 16
O12 Si9 1_0_0_0 1_0_0_0 1.6100 V 16
O12 Si8 1_0_0_0 1_0_0_0 1.6100 V 16
O13 Si1 1_0_0_0 1_0_0_0 1.6090 V 16
O14 Si2 1_0_0_0 1_0_0_0 1.6100 V 16
O15 Si3 1_0_0_0 1_0_0_0 1.6100 V 16
O16 Si5 1_0_0_0 1_0_0_0 1.6090 V 16
O17 Si6 1_0_0_0 1_0_0_0 1.6100 V 16
O18 Si7 1_0_0_0 1_0_0_0 1.6090 V 16
O19 Si9 1_0_0_0 1_0_0_0 1.6100 V 16
O20 Si3 1_0_0_0 1_0_0_0 1.6060 V 16
O21 Si4 1_0_0_0 1_0_0_0 1.6090 V 16
O22 Si8 1_0_0_0 1_0_0_0 1.6100 V 16
O23 Si5 1_0_0_0 1_0_0_0 1.6110 V 16
O24 Si6 1_0_0_0 1_0_0_0 1.6080 V 16
Lr1 Lr2 1_0_0_0 1_0_0_0 1.8280 V 8
Lr1 Lr5 1_0_0_0 1_0_0_0 1.7730 V 8
Lr2 Lr3 1_0_0_0 1_0_0_0 2.6720 V 8
Lr3 Lr9 1_0_0_0 1_0_0_0 2.8690 V 8
Lr3 Lr4 1_0_0_0 1_0_0_0 2.9790 V 8
Lr4 Lr14 1_0_0_0 11_-1_0_1 2.8170 V 8
Lr5 Lr7 1_0_0_0 1_0_-1_0 2.8060 V 8
Lr6 Lr7 1_0_0_0 1_0_0_0 2.8130 V 8
Lr6 Lr12 1_0_0_0 9_-1_0_0 1.7450 V 8
Lr7 Lr17 1_0_0_0 9_-1_0_0 2.8530 V 8
Lr8 Lr8 1_0_0_0 4_0_0_1 4.1140 V 8
Lr9 Lr15 1_0_0_0 9_-1_-1_0 2.8480 V 8
Lr10 Lr12 1_0_0_0 4_0_0_1 1.7180 V 8
Lr10 Lr15 1_0_0_0 9_-1_-1_0 2.8620 V 8
Lr11 Lr16 1_0_0_0 1_0_0_0 1.6600 V 8
Lr11 Lr13 1_0_0_0 1_0_0_0 1.6370 V 8
Lr13 Lr14 1_0_0_0 1_0_0_0 2.8430 V 8
Lr15 Lr16 1_0_0_0 1_0_1_0 2.8310 V 8
Lr18 Lr19 1_0_0_0 1_0_0_0 4.1140 V 8
#End of data_176-TOPOS_PSI-PPT1

data_177-TOPOS_PTF-PPT1
_audit_creation_date                2025-02-23
_audit_creation_method              ToposPro
_chemical_formula_structural        PTF-PPT1
_chemical_formula_sum               'Lr3 O40 Si20'
_citation_special_details
;
Space Group: C2/M->C 2/m. File: PTF-PPT1.cif. 
;
_cell_length_a                      21.2822
_cell_length_b                      22.3738
_cell_length_c                      12.6796
_cell_angle_alpha                   90
_cell_angle_beta                    124.234
_cell_angle_gamma                   90
_cell_volume                        4991.538
_cell_formula_units_Z               4
_symmetry_space_group_name_H-M      'C 2/m'
_symmetry_Int_Tables_number         12
_refine_ls_R_factor_all             0
loop_
_symmetry_equiv_pos_site_id
_symmetry_equiv_pos_as_xyz
1 x,y,z
2 -x,y,-z
3 -x,-y,-z
4 x,-y,z
5 1/2+x,1/2+y,z
6 1/2-x,1/2+y,-z
7 1/2-x,1/2-y,-z
8 1/2+x,1/2-y,z
loop_
_atom_site_label
_atom_site_type_symbol
_atom_site_symmetry_multiplicity
_atom_site_fract_x
_atom_site_fract_y
_atom_site_fract_z
_atom_site_occupancy
O1 O 8 0.12043 0.08489 0.12446 1.0000
O2 O 8 0.26582 0.07382 0.30734 1.0000
O3 O 8 0.28449 0.08624 0.12064 1.0000
O4 O 8 0.13922 0.07523 0.93748 1.0000
O5 O 8 0.17085 0.11265 0.36116 1.0000
O6 O 8 0.07910 0.20346 0.25016 1.0000
O7 O 8 0.00896 0.11282 0.89051 1.0000
O8 O 8 0.39624 0.11214 0.35656 1.0000
O9 O 8 0.41888 0.20286 0.25122 1.0000
O10 O 8 0.33772 0.19684 0.00029 1.0000
O11 O 8 0.23559 0.11192 0.88423 1.0000
O12 O 8 0.06950 0.21275 0.88193 1.0000
O13 O 8 0.22618 0.21729 0.36006 1.0000
O14 O 8 0.17152 0.20066 0.50001 1.0000
O15 O 8 0.24742 0.19567 0.74926 1.0000
O16 O 8 0.35480 0.22010 0.37587 1.0000
O17 O 8 0.19355 0.22219 0.88577 1.0000
O18 O 4 0.00000 0.20879 0.00000 1.0000
O19 O 4 0.35502 0.00000 0.28861 1.0000
O20 O 4 0.16632 0.00000 0.29625 1.0000
O21 O 4 0.23851 0.00000 0.95156 1.0000
O22 O 4 0.04982 0.00000 0.95276 1.0000
O23 O 4 0.50000 0.19346 0.50000 1.0000
Si1 Si 8 0.07937 0.06807 0.97617 1.0000
Si2 Si 8 0.18065 0.06778 0.27200 1.0000
Si3 Si 8 0.32560 0.06803 0.26824 1.0000
Si4 Si 8 0.22447 0.06825 0.97354 1.0000
Si5 Si 8 0.16229 0.18380 0.36859 1.0000
Si6 Si 8 0.00066 0.18444 0.12017 1.0000
Si7 Si 8 0.41747 0.18210 0.37151 1.0000
Si8 Si 8 0.37364 0.24107 0.12117 1.0000
Si9 Si 8 0.25347 0.18140 0.87911 1.0000
Si10 Si 8 0.20940 0.23995 0.62823 1.0000
Lr1 Lr 4 0.20252 0.00000 0.12249 1.0000
Lr2 Lr 4 0.05716 0.00000 0.10677 1.0000
Lr3 Lr 2 0.00000 0.00000 0.50000 1.0000
Lr4 Lr 2 0.00000 0.50000 0.00000 1.0000
loop_
_topos_bond_atom_site_label_1
_topos_bond_atom_site_label_2
_topos_bond_site_symmetry_1
_topos_bond_site_symmetry_2
_topos_bond_distance
_topos_bond_type
_topos_bond_multiplicity
O1 Si2 1_0_0_0 1_0_0_0 1.6100 V 8
O1 Si1 1_0_0_0 1_0_0_-1 1.6100 V 8
O2 Si2 1_0_0_0 1_0_0_0 1.6100 V 8
O2 Si3 1_0_0_0 1_0_0_0 1.6100 V 8
O3 Si3 1_0_0_0 1_0_0_0 1.6100 V 8
O3 Si4 1_0_0_0 1_0_0_-1 1.6100 V 8
O4 Si4 1_0_0_0 1_0_0_0 1.6100 V 8
O4 Si1 1_0_0_0 1_0_0_0 1.6100 V 8
O5 Si2 1_0_0_0 1_0_0_0 1.6110 V 8
O5 Si5 1_0_0_0 1_0_0_0 1.6110 V 8
O6 Si6 1_0_0_0 1_0_0_0 1.6090 V 8
O6 Si5 1_0_0_0 1_0_0_0 1.6100 V 8
O7 Si1 1_0_0_0 1_0_0_0 1.6110 V 8
O7 Si6 1_0_0_0 2_0_0_1 1.6110 V 8
O8 Si7 1_0_0_0 1_0_0_0 1.6110 V 8
O8 Si3 1_0_0_0 1_0_0_0 1.6110 V 8
O9 Si8 1_0_0_0 1_0_0_0 1.6100 V 8
O9 Si7 1_0_0_0 1_0_0_0 1.6110 V 8
O10 Si8 1_0_0_0 1_0_0_0 1.6110 V 8
O10 Si9 1_0_0_0 1_0_0_-1 1.6110 V 8
O11 Si9 1_0_0_0 1_0_0_0 1.6100 V 8
O11 Si4 1_0_0_0 1_0_0_0 1.6110 V 8
O12 Si6 1_0_0_0 2_0_0_1 1.6080 V 8
O12 Si8 1_0_0_0 7_0_0_1 1.6080 V 8
O13 Si5 1_0_0_0 1_0_0_0 1.6090 V 8
O13 Si10 1_0_0_0 7_0_0_1 1.6090 V 8
O14 Si5 1_0_0_0 1_0_0_0 1.6090 V 8
O14 Si10 1_0_0_0 1_0_0_0 1.6100 V 8
O15 Si9 1_0_0_0 1_0_0_0 1.6100 V 8
O15 Si10 1_0_0_0 1_0_0_0 1.6110 V 8
O16 Si7 1_0_0_0 1_0_0_0 1.6090 V 8
O16 Si10 1_0_0_0 7_0_0_1 1.6090 V 8
O17 Si9 1_0_0_0 1_0_0_0 1.6090 V 8
O17 Si8 1_0_0_0 7_0_0_1 1.6080 V 8
O18 Si6 1_0_0_0 1_0_0_0 1.6110 V 8
O19 Si3 1_0_0_0 1_0_0_0 1.6100 V 8
O20 Si2 1_0_0_0 1_0_0_0 1.6100 V 8
O21 Si4 1_0_0_0 1_0_0_0 1.6100 V 8
O22 Si1 1_0_0_0 1_0_0_0 1.6100 V 8
O23 Si7 1_0_0_0 1_0_0_0 1.6080 V 8
Lr1 Lr2 1_0_0_0 1_0_0_0 2.9860 V 4
Lr2 Lr3 1_0_0_0 1_0_0_0 5.7590 V 4
Lr2 Lr2 1_0_0_0 2_0_0_0 2.4160 V 2
Lr3 Lr4 1_0_0_0 5_0_-1_1 8.8050 V 4
Lr4 Lr4 1_0_0_0 1_0_0_1 12.6800 V 2
#End of data_177-TOPOS_PTF-PPT1

data_178-TOPOS_PTT-PPT1
_audit_creation_date                2025-02-23
_audit_creation_method              ToposPro
_chemical_formula_structural        PTT-PPT1
_chemical_formula_sum               'Lr1 O12 Si6'
_citation_special_details
;
Space Group: P-3M1->P -3 m 1. File: PTT-PPT1.cif. 
;
_cell_length_a                      10
_cell_length_b                      10
_cell_length_c                      10
_cell_angle_alpha                   90
_cell_angle_beta                    90
_cell_angle_gamma                   120
_cell_volume                        866.0254
_cell_formula_units_Z               4
_symmetry_space_group_name_H-M      'P -3 m 1'
_symmetry_Int_Tables_number         164
_refine_ls_R_factor_all             0
loop_
_symmetry_equiv_pos_site_id
_symmetry_equiv_pos_as_xyz
1 x,y,z
2 -y,x-y,z
3 -x+y,-x,z
4 x-y,-y,-z
5 -x,-x+y,-z
6 y,x,-z
7 -x,-y,-z
8 y,-x+y,-z
9 x-y,x,-z
10 -x+y,y,z
11 x,x-y,z
12 -y,-x,z
loop_
_atom_site_label
_atom_site_type_symbol
_atom_site_symmetry_multiplicity
_atom_site_fract_x
_atom_site_fract_y
_atom_site_fract_z
_atom_site_occupancy
O1 O 12 0.03267 0.35197 0.25425 1.0000
O2 O 6 0.09893 0.19786 0.32420 1.0000
O3 O 6 0.20981 0.41962 0.08390 1.0000
O4 O 6 0.87068 0.12932 0.30580 1.0000
O5 O 6 0.00000 0.27234 0.50000 1.0000
O6 O 6 0.13094 0.56547 0.14601 1.0000
O7 O 6 0.00000 0.37509 0.00000 1.0000
Si1 Si 12 0.00042 0.23764 0.34598 1.0000
Si2 Si 12 0.09334 0.42809 0.12132 1.0000
Lr1 Lr 1 0.00000 0.00000 0.50000 1.0000
Lr2 Lr 2 0.66667 0.33333 0.37574 1.0000
Lr3 Lr 1 0.00000 0.00000 0.00000 1.0000
loop_
_topos_bond_atom_site_label_1
_topos_bond_atom_site_label_2
_topos_bond_site_symmetry_1
_topos_bond_site_symmetry_2
_topos_bond_distance
_topos_bond_type
_topos_bond_multiplicity
O1 Si1 1_0_0_0 1_0_0_0 1.3730 V 12
O1 Si2 1_0_0_0 1_0_0_0 1.5010 V 12
O2 Si1 1_0_0_0 1_0_0_0 1.2520 V 12
O3 Si2 1_0_0_0 1_0_0_0 1.2660 V 12
O4 Si1 1_0_0_0 1_1_0_0 1.2700 V 12
O5 Si1 1_0_0_0 1_0_0_0 1.5790 V 12
O6 Si2 1_0_0_0 1_0_0_0 1.2540 V 12
O7 Si2 1_0_0_0 1_0_0_0 1.4590 V 12
Lr2 Lr2 1_0_0_0 4_1_1_1 6.2860 V 3
#End of data_178-TOPOS_PTT-PPT1

data_179-TOPOS_PTY-PPT1
_audit_creation_date                2025-02-23
_audit_creation_method              ToposPro
_chemical_formula_structural        PTY-PPT1
_chemical_formula_sum               'Lr1 O10 Si5'
_citation_special_details
;
Space Group: P-1->P -1. File: PTY-PPT1.cif. 
;
_cell_length_a                      7.1158
_cell_length_b                      9.1748
_cell_length_c                      9.116
_cell_angle_alpha                   84.645
_cell_angle_beta                    83.816
_cell_angle_gamma                   86.659
_cell_volume                        588.4025
_cell_formula_units_Z               2
_symmetry_space_group_name_H-M      'P -1'
_symmetry_Int_Tables_number         2
_refine_ls_R_factor_all             0
loop_
_symmetry_equiv_pos_site_id
_symmetry_equiv_pos_as_xyz
1 x,y,z
2 -x,-y,-z
loop_
_atom_site_label
_atom_site_type_symbol
_atom_site_symmetry_multiplicity
_atom_site_fract_x
_atom_site_fract_y
_atom_site_fract_z
_atom_site_occupancy
O1 O 2 0.71790 0.34340 0.31720 1.0000
O2 O 2 0.71930 0.50980 0.06630 1.0000
O3 O 2 0.76740 0.22370 0.06420 1.0000
O4 O 2 0.10400 0.48310 0.20320 1.0000
O5 O 2 0.13450 0.24670 0.05860 1.0000
O6 O 2 0.01850 0.76650 0.18940 1.0000
O7 O 2 0.16260 0.41200 0.60820 1.0000
O8 O 2 0.19280 0.63920 0.41150 1.0000
O9 O 2 0.43430 0.34210 0.15560 1.0000
O10 O 1 0.00000 0.00000 0.00000 1.0000
O11 O 1 0.50000 0.50000 0.50000 1.0000
Si1 Si 2 0.65960 0.35470 0.15050 1.0000
Si2 Si 2 0.23830 0.39110 0.08770 1.0000
Si3 Si 2 0.02890 0.82450 0.01660 1.0000
Si4 Si 2 0.03870 0.61950 0.29880 1.0000
Si5 Si 2 0.28510 0.55200 0.55000 1.0000
Lr1 Lr 1 0.50000 0.00000 0.50000 1.0000
Lr2 Lr 1 0.00000 0.50000 0.00000 1.0000
loop_
_topos_bond_atom_site_label_1
_topos_bond_atom_site_label_2
_topos_bond_site_symmetry_1
_topos_bond_site_symmetry_2
_topos_bond_distance
_topos_bond_type
_topos_bond_multiplicity
O1 Si1 1_0_0_0 1_0_0_0 1.6100 V 2
O1 Si5 1_0_0_0 2_1_1_1 1.6110 V 2
O2 Si1 1_0_0_0 1_0_0_0 1.6100 V 2
O2 Si2 1_0_0_0 2_1_1_0 1.6100 V 2
O3 Si1 1_0_0_0 1_0_0_0 1.6100 V 2
O3 Si3 1_0_0_0 2_1_1_0 1.6110 V 2
O4 Si2 1_0_0_0 1_0_0_0 1.6090 V 2
O4 Si4 1_0_0_0 1_0_0_0 1.6090 V 2
O5 Si2 1_0_0_0 1_0_0_0 1.6100 V 2
O5 Si3 1_0_0_0 2_0_1_0 1.6100 V 2
O6 Si4 1_0_0_0 1_0_0_0 1.6100 V 2
O6 Si3 1_0_0_0 1_0_0_0 1.6100 V 2
O7 Si5 1_0_0_0 1_0_0_0 1.6110 V 2
O7 Si4 1_0_0_0 2_0_1_1 1.6110 V 2
O8 Si4 1_0_0_0 1_0_0_0 1.6100 V 2
O8 Si5 1_0_0_0 1_0_0_0 1.6110 V 2
O9 Si1 1_0_0_0 1_0_0_0 1.6090 V 2
O9 Si2 1_0_0_0 1_0_0_0 1.6100 V 2
O10 Si3 1_0_0_0 1_0_-1_0 1.6060 V 2
O11 Si5 1_0_0_0 1_0_0_0 1.6060 V 2
Lr1 Lr1 1_0_0_0 1_0_0_1 9.1160 V 1
Lr1 Lr1 1_0_0_0 1_-1_0_0 7.1160 V 1
#End of data_179-TOPOS_PTY-PPT1

data_180-TOPOS_PUN-PPT1
_audit_creation_date                2025-02-23
_audit_creation_method              ToposPro
_chemical_formula_structural        PUN-PPT1
_chemical_formula_sum               'Lr2 O18 Si9'
_citation_special_details
;
Space Group: PBCN->P b c n. File: PUN-PPT1.cif. 
;
_cell_length_a                      14.689
_cell_length_b                      8.645
_cell_length_c                      18.941
_cell_angle_alpha                   90
_cell_angle_beta                    90
_cell_angle_gamma                   90
_cell_volume                        2405.25
_cell_formula_units_Z               4
_symmetry_space_group_name_H-M      'P b c n'
_symmetry_Int_Tables_number         60
_refine_ls_R_factor_all             0
loop_
_symmetry_equiv_pos_site_id
_symmetry_equiv_pos_as_xyz
1 x,y,z
2 1/2-x,1/2-y,1/2+z
3 1/2+x,1/2-y,-z
4 -x,y,1/2-z
5 -x,-y,-z
6 1/2+x,1/2+y,1/2-z
7 1/2-x,1/2+y,z
8 x,-y,1/2+z
loop_
_atom_site_label
_atom_site_type_symbol
_atom_site_symmetry_multiplicity
_atom_site_fract_x
_atom_site_fract_y
_atom_site_fract_z
_atom_site_occupancy
O1 O 8 0.06010 0.22670 0.09170 1.0000
O2 O 8 0.90160 0.10690 0.05610 1.0000
O3 O 8 0.78690 0.00630 0.95980 1.0000
O4 O 8 0.77720 0.80750 0.85450 1.0000
O5 O 8 0.08410 0.27870 0.22530 1.0000
O6 O 8 0.96940 0.06560 0.18430 1.0000
O7 O 8 0.95570 0.07320 0.92500 1.0000
O8 O 8 0.15370 0.47300 0.13230 1.0000
O9 O 8 0.65820 0.79640 0.95790 1.0000
Si1 Si 8 0.13120 0.29460 0.14870 1.0000
Si2 Si 8 0.99290 0.08080 0.10150 1.0000
Si3 Si 8 0.71920 0.90940 0.90970 1.0000
Si4 Si 8 0.87110 0.12080 0.97460 1.0000
Si5 Si 4 0.50000 0.32800 0.75000 1.0000
Lr1 Lr 8 0.86810 0.71103 0.15471 1.0000
loop_
_topos_bond_atom_site_label_1
_topos_bond_atom_site_label_2
_topos_bond_site_symmetry_1
_topos_bond_site_symmetry_2
_topos_bond_distance
_topos_bond_type
_topos_bond_multiplicity
O1 Si1 1_0_0_0 1_0_0_0 1.6130 V 8
O1 Si2 1_0_0_0 1_-1_0_0 1.6120 V 8
O2 Si2 1_0_0_0 1_0_0_0 1.6090 V 8
O2 Si4 1_0_0_0 1_0_0_-1 1.6120 V 8
O3 Si4 1_0_0_0 1_0_0_0 1.6090 V 8
O3 Si3 1_0_0_0 1_0_-1_0 1.6100 V 8
O4 Si3 1_0_0_0 1_0_0_0 1.6110 V 8
O4 Si1 1_0_0_0 5_1_1_1 1.6100 V 8
O5 Si1 1_0_0_0 1_0_0_0 1.6130 V 8
O5 Si5 1_0_0_0 2_0_0_-1 1.6110 V 8
O6 Si2 1_0_0_0 1_0_0_0 1.6110 V 8
O6 Si5 1_0_0_0 2_1_0_-1 1.6110 V 8
O7 Si4 1_0_0_0 1_0_0_0 1.6110 V 8
O7 Si2 1_0_0_0 5_2_0_1 1.6110 V 8
O8 Si1 1_0_0_0 1_0_0_0 1.6080 V 8
O8 Si3 1_0_0_0 3_-1_1_1 1.6100 V 8
O9 Si3 1_0_0_0 1_0_0_0 1.6100 V 8
O9 Si4 1_0_0_0 7_1_0_0 1.6090 V 8
Lr1 Lr1 1_0_0_0 7_1_0_0 5.5430 V 8
Lr1 Lr1 1_0_0_0 4_2_0_0 5.2960 V 4
Lr1 Lr1 1_0_0_0 5_2_1_0 7.9170 V 4
#End of data_180-TOPOS_PUN-PPT1

data_181-TOPOS_PWN-PPT1
_audit_creation_date                2025-02-23
_audit_creation_method              ToposPro
_chemical_formula_structural        PWN-PPT1
_chemical_formula_sum               'Lr13 O120 Si60'
_citation_special_details
;
Space Group: IM-3M->I m -3 m. File: PWN-PPT1.cif. 
;
_cell_length_a                      24.8673
_cell_length_b                      24.8673
_cell_length_c                      24.8673
_cell_angle_alpha                   90
_cell_angle_beta                    90
_cell_angle_gamma                   90
_cell_volume                        15377.51
_cell_formula_units_Z               4
_symmetry_space_group_name_H-M      'I m -3 m'
_symmetry_Int_Tables_number         229
_refine_ls_R_factor_all             0
loop_
_symmetry_equiv_pos_site_id
_symmetry_equiv_pos_as_xyz
1 x,y,z
2 -x,-y,z
3 x,-y,-z
4 -x,y,-z
5 z,x,y
6 y,z,x
7 -z,-x,y
8 -y,z,-x
9 z,-x,-y
10 -y,-z,x
11 -z,x,-y
12 y,-z,-x
13 -y,-x,-z
14 y,x,-z
15 y,-x,z
16 -y,x,z
17 -x,-z,-y
18 -z,-y,-x
19 x,z,-y
20 -z,y,x
21 x,-z,y
22 z,y,-x
23 -x,z,y
24 z,-y,x
25 -x,-y,-z
26 x,y,-z
27 -x,y,z
28 x,-y,z
29 -z,-x,-y
30 -y,-z,-x
31 z,x,-y
32 y,-z,x
33 -z,x,y
34 y,z,-x
35 z,-x,y
36 -y,z,x
37 y,x,z
38 -y,-x,z
39 -y,x,-z
40 y,-x,-z
41 x,z,y
42 z,y,x
43 -x,-z,y
44 z,-y,-x
45 -x,z,-y
46 -z,-y,x
47 x,-z,-y
48 -z,y,-x
49 1/2+x,1/2+y,1/2+z
50 1/2-x,1/2-y,1/2+z
51 1/2+x,1/2-y,1/2-z
52 1/2-x,1/2+y,1/2-z
53 1/2+z,1/2+x,1/2+y
54 1/2+y,1/2+z,1/2+x
55 1/2-z,1/2-x,1/2+y
56 1/2-y,1/2+z,1/2-x
57 1/2+z,1/2-x,1/2-y
58 1/2-y,1/2-z,1/2+x
59 1/2-z,1/2+x,1/2-y
60 1/2+y,1/2-z,1/2-x
61 1/2-y,1/2-x,1/2-z
62 1/2+y,1/2+x,1/2-z
63 1/2+y,1/2-x,1/2+z
64 1/2-y,1/2+x,1/2+z
65 1/2-x,1/2-z,1/2-y
66 1/2-z,1/2-y,1/2-x
67 1/2+x,1/2+z,1/2-y
68 1/2-z,1/2+y,1/2+x
69 1/2+x,1/2-z,1/2+y
70 1/2+z,1/2+y,1/2-x
71 1/2-x,1/2+z,1/2+y
72 1/2+z,1/2-y,1/2+x
73 1/2-x,1/2-y,1/2-z
74 1/2+x,1/2+y,1/2-z
75 1/2-x,1/2+y,1/2+z
76 1/2+x,1/2-y,1/2+z
77 1/2-z,1/2-x,1/2-y
78 1/2-y,1/2-z,1/2-x
79 1/2+z,1/2+x,1/2-y
80 1/2+y,1/2-z,1/2+x
81 1/2-z,1/2+x,1/2+y
82 1/2+y,1/2+z,1/2-x
83 1/2+z,1/2-x,1/2+y
84 1/2-y,1/2+z,1/2+x
85 1/2+y,1/2+x,1/2+z
86 1/2-y,1/2-x,1/2+z
87 1/2-y,1/2+x,1/2-z
88 1/2+y,1/2-x,1/2-z
89 1/2+x,1/2+z,1/2+y
90 1/2+z,1/2+y,1/2+x
91 1/2-x,1/2-z,1/2+y
92 1/2+z,1/2-y,1/2-x
93 1/2-x,1/2+z,1/2-y
94 1/2-z,1/2-y,1/2+x
95 1/2+x,1/2-z,1/2-y
96 1/2-z,1/2+y,1/2-x
loop_
_atom_site_label
_atom_site_type_symbol
_atom_site_symmetry_multiplicity
_atom_site_fract_x
_atom_site_fract_y
_atom_site_fract_z
_atom_site_occupancy
O1 O 96 0.30000 0.16656 0.07142 1.0000
O2 O 96 0.40051 0.19953 0.07801 1.0000
O3 O 48 0.37120 0.13452 0.00000 1.0000
O4 O 48 0.22843 0.13534 0.00000 1.0000
O5 O 48 0.50000 0.23465 0.07158 1.0000
O6 O 48 0.37665 0.09895 0.09895 1.0000
O7 O 48 0.22339 0.09905 0.09905 1.0000
O8 O 48 0.20008 0.20008 0.07868 1.0000
Si1 Si 96 0.36190 0.15009 0.06212 1.0000
Si2 Si 96 0.23802 0.15026 0.06225 1.0000
Si3 Si 48 0.43783 0.25000 0.06217 1.0000
Lr1 Lr 12 0.29996 0.00000 0.00000 1.0000
Lr2 Lr 8 0.25000 0.25000 0.25000 1.0000
Lr3 Lr 24 0.29699 0.29699 0.00000 1.0000
Lr4 Lr 6 0.50000 0.00000 0.00000 1.0000
Lr5 Lr 2 0.00000 0.00000 0.00000 1.0000
loop_
_topos_bond_atom_site_label_1
_topos_bond_atom_site_label_2
_topos_bond_site_symmetry_1
_topos_bond_site_symmetry_2
_topos_bond_distance
_topos_bond_type
_topos_bond_multiplicity
O1 Si1 1_0_0_0 1_0_0_0 1.6100 V 96
O1 Si2 1_0_0_0 1_0_0_0 1.6100 V 96
O2 Si1 1_0_0_0 1_0_0_0 1.6090 V 96
O2 Si3 1_0_0_0 1_0_0_0 1.6100 V 96
O3 Si1 1_0_0_0 1_0_0_0 1.6090 V 96
O4 Si2 1_0_0_0 1_0_0_0 1.6100 V 96
O5 Si3 1_0_0_0 1_0_0_0 1.6100 V 96
O6 Si1 1_0_0_0 1_0_0_0 1.6100 V 96
O7 Si2 1_0_0_0 1_0_0_0 1.6100 V 96
O8 Si2 1_0_0_0 1_0_0_0 1.6100 V 96
Lr1 Lr4 1_0_0_0 1_0_0_0 4.9740 V 12
Lr1 Lr5 1_0_0_0 1_0_0_0 7.4590 V 12
Lr2 Lr3 1_0_0_0 56_0_0_0 6.4330 V 48
Lr3 Lr4 1_0_0_0 54_0_0_-1 7.1390 V 24
#End of data_181-TOPOS_PWN-PPT1

data_182-TOPOS_PWO-PPT1
_audit_creation_date                2025-02-23
_audit_creation_method              ToposPro
_chemical_formula_structural        PWO-PPT1
_chemical_formula_sum               'Lr1 O10 Si5'
_citation_special_details
;
Space Group: P21/C->P 21/c. File: PWO-PPT1.cif. 
;
_cell_length_a                      9.1804
_cell_length_b                      11.6735
_cell_length_c                      10.8785
_cell_angle_alpha                   90
_cell_angle_beta                    91.67
_cell_angle_gamma                   90
_cell_volume                        1165.325
_cell_formula_units_Z               4
_symmetry_space_group_name_H-M      'P 21/c'
_symmetry_Int_Tables_number         14
_refine_ls_R_factor_all             0
loop_
_symmetry_equiv_pos_site_id
_symmetry_equiv_pos_as_xyz
1 x,y,z
2 -x,1/2+y,1/2-z
3 -x,-y,-z
4 x,1/2-y,1/2+z
loop_
_atom_site_label
_atom_site_type_symbol
_atom_site_symmetry_multiplicity
_atom_site_fract_x
_atom_site_fract_y
_atom_site_fract_z
_atom_site_occupancy
O1 O 4 0.14967 0.52392 0.29964 1.0000
O2 O 4 0.00090 0.39116 0.14545 1.0000
O3 O 4 0.18142 0.30134 0.31146 1.0000
O4 O 4 0.28313 0.41625 0.12338 1.0000
O5 O 4 0.75755 0.39925 0.01235 1.0000
O6 O 4 0.00425 0.14935 0.40730 1.0000
O7 O 4 0.11280 0.70129 0.44510 1.0000
O8 O 4 0.28098 0.09941 0.38270 1.0000
O9 O 4 0.10719 0.11797 0.18715 1.0000
O10 O 2 0.50000 0.00000 0.50000 1.0000
O11 O 2 0.00000 0.00000 0.00000 1.0000
Si1 Si 4 0.15368 0.40788 0.21969 1.0000
Si2 Si 4 0.08753 0.83575 0.46988 1.0000
Si3 Si 4 0.14359 0.16716 0.32296 1.0000
Si4 Si 4 0.32683 0.48009 0.99849 1.0000
Si5 Si 4 0.03921 0.58612 0.39070 1.0000
Lr1 Lr 2 0.00000 0.50000 0.00000 1.0000
Lr2 Lr 2 0.50000 0.00000 0.00000 1.0000
loop_
_topos_bond_atom_site_label_1
_topos_bond_atom_site_label_2
_topos_bond_site_symmetry_1
_topos_bond_site_symmetry_2
_topos_bond_distance
_topos_bond_type
_topos_bond_multiplicity
O1 Si1 1_0_0_0 1_0_0_0 1.6110 V 4
O1 Si5 1_0_0_0 1_0_0_0 1.6110 V 4
O2 Si1 1_0_0_0 1_0_0_0 1.6100 V 4
O2 Si2 1_0_0_0 2_0_-1_0 1.6100 V 4
O3 Si3 1_0_0_0 1_0_0_0 1.6100 V 4
O3 Si1 1_0_0_0 1_0_0_0 1.6100 V 4
O4 Si1 1_0_0_0 1_0_0_0 1.6100 V 4
O4 Si4 1_0_0_0 1_0_0_-1 1.6110 V 4
O5 Si4 1_0_0_0 3_1_1_1 1.6100 V 4
O5 Si2 1_0_0_0 2_1_-1_0 1.6100 V 4
O6 Si3 1_0_0_0 1_0_0_0 1.6090 V 4
O6 Si2 1_0_0_0 3_0_1_1 1.6100 V 4
O7 Si5 1_0_0_0 1_0_0_0 1.6100 V 4
O7 Si2 1_0_0_0 1_0_0_0 1.6110 V 4
O8 Si3 1_0_0_0 1_0_0_0 1.6100 V 4
O8 Si4 1_0_0_0 4_0_0_-1 1.6110 V 4
O9 Si3 1_0_0_0 1_0_0_0 1.6110 V 4
O9 Si5 1_0_0_0 2_0_-1_0 1.6110 V 4
O10 Si4 1_0_0_0 2_1_-1_1 1.6060 V 4
O11 Si5 1_0_0_0 2_0_-1_0 1.6060 V 4
Lr2 Lr2 1_0_0_0 2_1_0_0 7.9780 V 4
#End of data_182-TOPOS_PWO-PPT1

data_183-TOPOS_PWW-PPT1
_audit_creation_date                2025-02-23
_audit_creation_method              ToposPro
_chemical_formula_structural        PWW-PPT1
_chemical_formula_sum               'Lr1 O10 Si5'
_citation_special_details
;
Space Group: C2/C->C 2/c. File: PWW-PPT1.cif. 
;
_cell_length_a                      20.7622
_cell_length_b                      11.7067
_cell_length_c                      11.0461
_cell_angle_alpha                   90
_cell_angle_beta                    119.047
_cell_angle_gamma                   90
_cell_volume                        2347.137
_cell_formula_units_Z               8
_symmetry_space_group_name_H-M      'C 2/c'
_symmetry_Int_Tables_number         15
_refine_ls_R_factor_all             0
loop_
_symmetry_equiv_pos_site_id
_symmetry_equiv_pos_as_xyz
1 x,y,z
2 -x,y,1/2-z
3 -x,-y,-z
4 x,-y,1/2+z
5 1/2+x,1/2+y,z
6 1/2-x,1/2+y,1/2-z
7 1/2-x,1/2-y,-z
8 1/2+x,1/2-y,1/2+z
loop_
_atom_site_label
_atom_site_type_symbol
_atom_site_symmetry_multiplicity
_atom_site_fract_x
_atom_site_fract_y
_atom_site_fract_z
_atom_site_occupancy
O1 O 8 0.75956 0.63763 0.86759 1.0000
O2 O 8 0.85491 0.54069 0.80743 1.0000
O3 O 8 0.90108 0.67791 0.02261 1.0000
O4 O 8 0.82992 0.76143 0.77049 1.0000
O5 O 8 0.75859 0.58197 0.09792 1.0000
O6 O 8 0.63597 0.64482 0.87868 1.0000
O7 O 8 0.69577 0.44739 0.88037 1.0000
O8 O 8 0.89373 0.65833 0.25242 1.0000
O9 O 8 0.80236 0.64853 0.35321 1.0000
O10 O 4 0.50000 0.27931 0.25000 1.0000
O11 O 4 0.75000 0.25000 0.00000 1.0000
Si1 Si 8 0.83639 0.65415 0.86704 1.0000
Si2 Si 8 0.71281 0.57814 0.93148 1.0000
Si3 Si 8 0.82743 0.58698 0.25235 1.0000
Si4 Si 8 0.91480 0.74261 0.16180 1.0000
Si5 Si 8 0.72957 0.32756 0.86621 1.0000
Lr1 Lr 4 0.75000 0.75000 0.00000 1.0000
Lr2 Lr 4 0.00000 0.21335 0.25000 1.0000
loop_
_topos_bond_atom_site_label_1
_topos_bond_atom_site_label_2
_topos_bond_site_symmetry_1
_topos_bond_site_symmetry_2
_topos_bond_distance
_topos_bond_type
_topos_bond_multiplicity
O1 Si2 1_0_0_0 1_0_0_0 1.6090 V 8
O1 Si1 1_0_0_0 1_0_0_0 1.6100 V 8
O2 Si1 1_0_0_0 1_0_0_0 1.6100 V 8
O2 Si3 1_0_0_0 4_0_1_0 1.6100 V 8
O3 Si4 1_0_0_0 1_0_0_0 1.6100 V 8
O3 Si1 1_0_0_0 1_0_0_-1 1.6100 V 8
O4 Si1 1_0_0_0 1_0_0_0 1.6100 V 8
O4 Si5 1_0_0_0 6_1_0_1 1.6110 V 8
O5 Si3 1_0_0_0 1_0_0_0 1.6090 V 8
O5 Si2 1_0_0_0 1_0_0_-1 1.6090 V 8
O6 Si2 1_0_0_0 1_0_0_0 1.6100 V 8
O6 Si4 1_0_0_0 7_1_1_1 1.6090 V 8
O7 Si5 1_0_0_0 1_0_0_0 1.6100 V 8
O7 Si2 1_0_0_0 1_0_0_0 1.6100 V 8
O8 Si3 1_0_0_0 1_0_0_0 1.6100 V 8
O8 Si4 1_0_0_0 1_0_0_0 1.6100 V 8
O9 Si3 1_0_0_0 1_0_0_0 1.6110 V 8
O9 Si5 1_0_0_0 4_0_1_-1 1.6100 V 8
O10 Si4 1_0_0_0 5_-1_-1_0 1.6090 V 8
O11 Si5 1_0_0_0 1_0_0_-1 1.6060 V 8
Lr2 Lr2 1_0_0_0 3_0_1_1 8.6920 V 4
Lr2 Lr2 1_0_0_0 3_0_0_0 7.4470 V 4
#End of data_183-TOPOS_PWW-PPT1

data_184-TOPOS_RFE-PPT1
_audit_creation_date                2025-02-23
_audit_creation_method              ToposPro
_chemical_formula_structural        RFE-PPT1
_chemical_formula_sum               'Lr3 O8 Si4'
_citation_special_details
;
Space Group: IMMA->I m m a. File: RFE-PPT1.cif. 
;
_cell_length_a                      8.257
_cell_length_b                      14.562
_cell_length_c                      20.314
_cell_angle_alpha                   90
_cell_angle_beta                    90
_cell_angle_gamma                   90
_cell_volume                        2442.523
_cell_formula_units_Z               12
_symmetry_space_group_name_H-M      'I m m a'
_symmetry_Int_Tables_number         74
_refine_ls_R_factor_all             0
loop_
_symmetry_equiv_pos_site_id
_symmetry_equiv_pos_as_xyz
1 x,y,z
2 -x,1/2-y,z
3 x,-y,-z
4 -x,1/2+y,-z
5 -x,-y,-z
6 x,1/2+y,-z
7 -x,y,z
8 x,1/2-y,z
9 1/2+x,1/2+y,1/2+z
10 1/2-x,-y,1/2+z
11 1/2+x,1/2-y,1/2-z
12 1/2-x,y,1/2-z
13 1/2-x,1/2-y,1/2-z
14 1/2+x,y,1/2-z
15 1/2-x,1/2+y,1/2+z
16 1/2+x,-y,1/2+z
loop_
_atom_site_label
_atom_site_type_symbol
_atom_site_symmetry_multiplicity
_atom_site_fract_x
_atom_site_fract_y
_atom_site_fract_z
_atom_site_occupancy
O1 O 16 0.27650 0.84000 0.15460 1.0000
O2 O 16 0.21020 0.01260 0.12790 1.0000
O3 O 16 0.28750 0.84020 0.94140 1.0000
O4 O 4 0.50000 0.75000 0.01190 1.0000
O5 O 4 0.00000 0.75000 0.15020 1.0000
O6 O 8 0.50000 0.96740 0.16980 1.0000
O7 O 8 0.00000 0.91330 0.95390 1.0000
O8 O 8 0.19420 0.75000 0.04760 1.0000
O9 O 8 0.25000 0.96150 0.25000 1.0000
O10 O 8 0.25430 0.00000 0.00000 1.0000
Si1 Si 16 0.30980 0.94480 0.17560 1.0000
Si2 Si 16 0.18840 0.93550 0.94140 1.0000
Si3 Si 8 0.31590 0.75000 0.98570 1.0000
Si4 Si 8 0.18630 0.75000 0.12680 1.0000
Lr1 Lr 4 0.50000 0.75000 0.25000 1.0000
Lr2 Lr 4 0.50000 0.75000 0.11593 1.0000
Lr3 Lr 4 0.00000 0.75000 0.99883 1.0000
Lr4 Lr 8 0.50000 0.92603 0.32865 1.0000
Lr5 Lr 8 0.00000 0.11104 0.94238 1.0000
Lr6 Lr 4 0.50000 0.00000 0.00000 1.0000
Lr7 Lr 4 0.50000 0.25000 0.25000 1.0000
loop_
_topos_bond_atom_site_label_1
_topos_bond_atom_site_label_2
_topos_bond_site_symmetry_1
_topos_bond_site_symmetry_2
_topos_bond_distance
_topos_bond_type
_topos_bond_multiplicity
O1 Si1 1_0_0_0 1_0_0_0 1.6080 V 16
O1 Si4 1_0_0_0 1_0_0_0 1.6100 V 16
O2 Si2 1_0_0_0 3_0_1_1 1.6080 V 16
O2 Si1 1_0_0_0 1_0_-1_0 1.6090 V 16
O3 Si3 1_0_0_0 1_0_0_0 1.6090 V 16
O3 Si2 1_0_0_0 1_0_0_0 1.6110 V 16
O4 Si3 1_0_0_0 2_1_1_-1 1.6110 V 8
O5 Si4 1_0_0_0 1_0_0_0 1.6100 V 8
O6 Si1 1_0_0_0 1_0_0_0 1.6090 V 16
O7 Si2 1_0_0_0 1_0_0_0 1.6090 V 16
O8 Si4 1_0_0_0 1_0_0_0 1.6100 V 8
O8 Si3 1_0_0_0 1_0_0_-1 1.6100 V 8
O9 Si1 1_0_0_0 1_0_0_0 1.6080 V 16
O10 Si2 1_0_0_0 1_0_-1_-1 1.6110 V 16
Lr1 Lr2 1_0_0_0 1_0_0_0 2.7230 V 4
Lr3 Lr5 1_0_0_0 4_0_0_2 2.3500 V 8
Lr4 Lr5 1_0_0_0 10_0_1_-1 2.3730 V 8
Lr7 Lr7 1_0_0_0 11_0_0_0 4.1290 V 4
#End of data_184-TOPOS_RFE-PPT1

data_185-TOPOS_RHO-PPT1
_audit_creation_date                2025-02-23
_audit_creation_method              ToposPro
_chemical_formula_structural        RHO-PPT1
_chemical_formula_sum               'Lr1 O12 Si6'
_citation_special_details
;
Space Group: IM-3M->I m -3 m. File: RHO-PPT1.cif. 
;
_cell_length_a                      14.919
_cell_length_b                      14.919
_cell_length_c                      14.919
_cell_angle_alpha                   90
_cell_angle_beta                    90
_cell_angle_gamma                   90
_cell_volume                        3320.619
_cell_formula_units_Z               8
_symmetry_space_group_name_H-M      'I m -3 m'
_symmetry_Int_Tables_number         229
_refine_ls_R_factor_all             0
loop_
_symmetry_equiv_pos_site_id
_symmetry_equiv_pos_as_xyz
1 x,y,z
2 -x,-y,z
3 x,-y,-z
4 -x,y,-z
5 z,x,y
6 y,z,x
7 -z,-x,y
8 -y,z,-x
9 z,-x,-y
10 -y,-z,x
11 -z,x,-y
12 y,-z,-x
13 -y,-x,-z
14 y,x,-z
15 y,-x,z
16 -y,x,z
17 -x,-z,-y
18 -z,-y,-x
19 x,z,-y
20 -z,y,x
21 x,-z,y
22 z,y,-x
23 -x,z,y
24 z,-y,x
25 -x,-y,-z
26 x,y,-z
27 -x,y,z
28 x,-y,z
29 -z,-x,-y
30 -y,-z,-x
31 z,x,-y
32 y,-z,x
33 -z,x,y
34 y,z,-x
35 z,-x,y
36 -y,z,x
37 y,x,z
38 -y,-x,z
39 -y,x,-z
40 y,-x,-z
41 x,z,y
42 z,y,x
43 -x,-z,y
44 z,-y,-x
45 -x,z,-y
46 -z,-y,x
47 x,-z,-y
48 -z,y,-x
49 1/2+x,1/2+y,1/2+z
50 1/2-x,1/2-y,1/2+z
51 1/2+x,1/2-y,1/2-z
52 1/2-x,1/2+y,1/2-z
53 1/2+z,1/2+x,1/2+y
54 1/2+y,1/2+z,1/2+x
55 1/2-z,1/2-x,1/2+y
56 1/2-y,1/2+z,1/2-x
57 1/2+z,1/2-x,1/2-y
58 1/2-y,1/2-z,1/2+x
59 1/2-z,1/2+x,1/2-y
60 1/2+y,1/2-z,1/2-x
61 1/2-y,1/2-x,1/2-z
62 1/2+y,1/2+x,1/2-z
63 1/2+y,1/2-x,1/2+z
64 1/2-y,1/2+x,1/2+z
65 1/2-x,1/2-z,1/2-y
66 1/2-z,1/2-y,1/2-x
67 1/2+x,1/2+z,1/2-y
68 1/2-z,1/2+y,1/2+x
69 1/2+x,1/2-z,1/2+y
70 1/2+z,1/2+y,1/2-x
71 1/2-x,1/2+z,1/2+y
72 1/2+z,1/2-y,1/2+x
73 1/2-x,1/2-y,1/2-z
74 1/2+x,1/2+y,1/2-z
75 1/2-x,1/2+y,1/2+z
76 1/2+x,1/2-y,1/2+z
77 1/2-z,1/2-x,1/2-y
78 1/2-y,1/2-z,1/2-x
79 1/2+z,1/2+x,1/2-y
80 1/2+y,1/2-z,1/2+x
81 1/2-z,1/2+x,1/2+y
82 1/2+y,1/2+z,1/2-x
83 1/2+z,1/2-x,1/2+y
84 1/2-y,1/2+z,1/2+x
85 1/2+y,1/2+x,1/2+z
86 1/2-y,1/2-x,1/2+z
87 1/2-y,1/2+x,1/2-z
88 1/2+y,1/2-x,1/2-z
89 1/2+x,1/2+z,1/2+y
90 1/2+z,1/2+y,1/2+x
91 1/2-x,1/2-z,1/2+y
92 1/2+z,1/2-y,1/2-x
93 1/2-x,1/2+z,1/2-y
94 1/2-z,1/2-y,1/2+x
95 1/2+x,1/2-z,1/2-y
96 1/2-z,1/2+y,1/2-x
loop_
_atom_site_label
_atom_site_type_symbol
_atom_site_symmetry_multiplicity
_atom_site_fract_x
_atom_site_fract_y
_atom_site_fract_z
_atom_site_occupancy
O1 O 48 0.33440 0.12980 0.33440 1.0000
O2 O 48 0.27540 0.11930 0.50000 1.0000
Si1 Si 48 0.25000 0.10370 0.39630 1.0000
Lr1 Lr 6 0.00000 0.00000 0.50000 1.0000
Lr2 Lr 2 0.00000 0.00000 0.00000 1.0000
loop_
_topos_bond_atom_site_label_1
_topos_bond_atom_site_label_2
_topos_bond_site_symmetry_1
_topos_bond_site_symmetry_2
_topos_bond_distance
_topos_bond_type
_topos_bond_multiplicity
O1 Si1 1_0_0_0 1_0_0_0 1.6090 V 96
O2 Si1 1_0_0_0 1_0_0_0 1.6100 V 96
Lr1 Lr2 1_0_0_0 1_0_0_0 7.4600 V 12
#End of data_185-TOPOS_RHO-PPT1

data_186-TOPOS_RRO-PPT1
_audit_creation_date                2025-02-23
_audit_creation_method              ToposPro
_chemical_formula_structural        RRO-PPT1
_chemical_formula_sum               'Lr5 O18 Si9'
_citation_special_details
;
Space Group: P2/C->P 2/c. File: RRO-PPT1.cif. 
;
_cell_length_a                      7.412
_cell_length_b                      8.641
_cell_length_c                      17.18
_cell_angle_alpha                   90
_cell_angle_beta                    113.678
_cell_angle_gamma                   90
_cell_volume                        1007.7
_cell_formula_units_Z               2
_symmetry_space_group_name_H-M      'P 2/c'
_symmetry_Int_Tables_number         13
_refine_ls_R_factor_all             0
loop_
_symmetry_equiv_pos_site_id
_symmetry_equiv_pos_as_xyz
1 x,y,z
2 -x,y,1/2-z
3 -x,-y,-z
4 x,-y,1/2+z
loop_
_atom_site_label
_atom_site_type_symbol
_atom_site_symmetry_multiplicity
_atom_site_fract_x
_atom_site_fract_y
_atom_site_fract_z
_atom_site_occupancy
O1 O 4 0.12720 0.71390 0.51980 1.0000
O2 O 4 0.83280 0.79270 0.55980 1.0000
O3 O 4 0.78140 0.77900 0.39920 1.0000
O4 O 4 0.68290 0.51800 0.51220 1.0000
O5 O 4 0.48340 0.29450 0.41570 1.0000
O6 O 4 0.67960 0.48810 0.35980 1.0000
O7 O 4 0.13130 0.63800 0.21670 1.0000
O8 O 4 0.14120 0.42090 0.32580 1.0000
O9 O 2 0.00000 0.00000 0.50000 1.0000
O10 O 2 0.50000 0.70770 0.25000 1.0000
Si1 Si 4 0.93480 0.82160 0.49400 1.0000
Si2 Si 4 0.68190 0.39550 0.44150 1.0000
Si3 Si 4 0.29340 0.65400 0.17680 1.0000
Si4 Si 4 0.27690 0.34950 0.41710 1.0000
Si5 Si 2 0.00000 0.46980 0.75000 1.0000
Lr1 Lr 4 0.29936 0.89538 0.34804 1.0000
Lr2 Lr 4 0.38462 0.79722 0.75000 1.0000
Lr3 Lr 2 0.00000 0.50000 0.50000 1.0000
loop_
_topos_bond_atom_site_label_1
_topos_bond_atom_site_label_2
_topos_bond_site_symmetry_1
_topos_bond_site_symmetry_2
_topos_bond_distance
_topos_bond_type
_topos_bond_multiplicity
O1 Si2 1_0_0_0 3_1_1_1 1.6070 V 4
O1 Si1 1_0_0_0 1_-1_0_0 1.6090 V 4
O2 Si1 1_0_0_0 1_0_0_0 1.6120 V 4
O2 Si4 1_0_0_0 3_1_1_1 1.6090 V 4
O3 Si1 1_0_0_0 1_0_0_0 1.6100 V 4
O3 Si3 1_0_0_0 2_1_0_0 1.6120 V 4
O4 Si2 1_0_0_0 1_0_0_0 1.6090 V 4
O4 Si4 1_0_0_0 3_1_1_1 1.6080 V 4
O5 Si4 1_0_0_0 1_0_0_0 1.6120 V 4
O5 Si2 1_0_0_0 1_0_0_0 1.6120 V 4
O6 Si2 1_0_0_0 1_0_0_0 1.6100 V 4
O6 Si3 1_0_0_0 2_1_0_0 1.6100 V 4
O7 Si3 1_0_0_0 1_0_0_0 1.6110 V 4
O7 Si5 1_0_0_0 3_0_1_1 1.6090 V 4
O8 Si4 1_0_0_0 1_0_0_0 1.6080 V 4
O8 Si5 1_0_0_0 3_0_1_1 1.6090 V 4
O9 Si1 1_0_0_0 1_-1_-1_0 1.6060 V 4
O10 Si3 1_0_0_0 1_0_0_0 1.6110 V 4
Lr1 Lr2 1_0_0_0 4_0_2_-1 3.3390 V 4
Lr1 Lr1 1_0_0_0 2_0_0_0 4.3630 V 2
Lr1 Lr1 1_0_0_0 3_1_2_1 5.1870 V 2
Lr2 Lr2 1_0_0_0 2_1_0_1 1.7100 V 2
#End of data_186-TOPOS_RRO-PPT1

data_187-TOPOS_RSN-PPT1
_audit_creation_date                2025-02-23
_audit_creation_method              ToposPro
_chemical_formula_structural        RSN-PPT1
_chemical_formula_sum               'Lr13 O36 Si18'
_citation_special_details
;
Space Group: CMMM->C m m m. File: RSN-PPT1.cif. 
;
_cell_length_a                      7.1563
_cell_length_b                      41.9098
_cell_length_c                      7.1604
_cell_angle_alpha                   90
_cell_angle_beta                    90
_cell_angle_gamma                   90
_cell_volume                        2147.541
_cell_formula_units_Z               2
_symmetry_space_group_name_H-M      'C m m m'
_symmetry_Int_Tables_number         65
_refine_ls_R_factor_all             0
loop_
_symmetry_equiv_pos_site_id
_symmetry_equiv_pos_as_xyz
1 x,y,z
2 -x,-y,z
3 x,-y,-z
4 -x,y,-z
5 -x,-y,-z
6 x,y,-z
7 -x,y,z
8 x,-y,z
9 1/2+x,1/2+y,z
10 1/2-x,1/2-y,z
11 1/2+x,1/2-y,-z
12 1/2-x,1/2+y,-z
13 1/2-x,1/2-y,-z
14 1/2+x,1/2+y,-z
15 1/2-x,1/2+y,z
16 1/2+x,1/2-y,z
loop_
_atom_site_label
_atom_site_type_symbol
_atom_site_symmetry_multiplicity
_atom_site_fract_x
_atom_site_fract_y
_atom_site_fract_z
_atom_site_occupancy
O1 O 16 0.68311 0.05311 0.18461 1.0000
O2 O 16 0.81541 0.19693 0.31686 1.0000
O3 O 8 0.81691 0.10261 0.00000 1.0000
O4 O 8 0.00000 0.14742 0.18299 1.0000
O5 O 4 0.00000 0.04917 0.00000 1.0000
O6 O 4 0.00000 0.20086 0.00000 1.0000
O7 O 4 0.50000 0.04595 0.50000 1.0000
O8 O 4 0.50000 0.20369 0.50000 1.0000
O9 O 4 0.50000 0.00000 0.24722 1.0000
O10 O 4 0.25000 0.25000 0.50000 1.0000
Si1 Si 8 0.79287 0.06436 0.00000 1.0000
Si2 Si 8 0.00000 0.18568 0.20701 1.0000
Si3 Si 4 0.00000 0.12502 0.00000 1.0000
Si4 Si 8 0.50000 0.03792 0.28041 1.0000
Si5 Si 8 0.28061 0.21204 0.50000 1.0000
Lr1 Lr 4 0.00000 0.25872 0.00000 1.0000
Lr2 Lr 4 0.50000 0.12500 0.50000 1.0000
Lr3 Lr 4 0.00000 0.10470 0.50000 1.0000
Lr4 Lr 4 0.00000 0.22734 0.50000 1.0000
Lr5 Lr 4 0.50000 0.14530 0.00000 1.0000
Lr6 Lr 2 0.50000 0.00000 0.00000 1.0000
Lr7 Lr 2 0.00000 0.00000 0.50000 1.0000
Lr8 Lr 2 0.00000 0.00000 0.00000 1.0000
loop_
_topos_bond_atom_site_label_1
_topos_bond_atom_site_label_2
_topos_bond_site_symmetry_1
_topos_bond_site_symmetry_2
_topos_bond_distance
_topos_bond_type
_topos_bond_multiplicity
O1 Si1 1_0_0_0 1_0_0_0 1.6080 V 16
O1 Si4 1_0_0_0 1_0_0_0 1.6100 V 16
O2 Si2 1_0_0_0 1_1_0_0 1.6080 V 16
O2 Si5 1_0_0_0 4_1_0_1 1.6100 V 16
O3 Si1 1_0_0_0 1_0_0_0 1.6120 V 8
O3 Si3 1_0_0_0 1_1_0_0 1.6120 V 8
O4 Si3 1_0_0_0 1_0_0_0 1.6120 V 8
O4 Si2 1_0_0_0 1_0_0_0 1.6130 V 8
O5 Si1 1_0_0_0 1_-1_0_0 1.6130 V 8
O6 Si2 1_0_0_0 1_0_0_0 1.6130 V 8
O7 Si4 1_0_0_0 1_0_0_0 1.6080 V 8
O8 Si5 1_0_0_0 1_0_0_0 1.6090 V 8
O9 Si4 1_0_0_0 1_0_0_0 1.6070 V 8
O10 Si5 1_0_0_0 1_0_0_0 1.6060 V 8
Lr1 Lr5 1_0_0_0 10_0_0_0 4.0230 V 4
Lr1 Lr1 1_0_0_0 10_0_0_0 3.6520 V 4
Lr2 Lr5 1_0_0_0 1_0_0_0 3.6800 V 8
Lr2 Lr3 1_0_0_0 1_0_0_0 3.6780 V 8
Lr3 Lr7 1_0_0_0 1_0_0_0 4.3880 V 4
Lr7 Lr8 1_0_0_0 1_0_0_0 3.5800 V 4
#End of data_187-TOPOS_RSN-PPT1

data_188-TOPOS_RTE-PPT1
_audit_creation_date                2025-02-23
_audit_creation_method              ToposPro
_chemical_formula_structural        RTE-PPT1
_chemical_formula_sum               'Lr1 O12 Si6'
_citation_special_details
;
Space Group: C2/M->C 2/m. File: RTE-PPT1.cif. 
;
_cell_length_a                      14.098
_cell_length_b                      13.67
_cell_length_c                      7.431
_cell_angle_alpha                   90
_cell_angle_beta                    102.421
_cell_angle_gamma                   90
_cell_volume                        1398.579
_cell_formula_units_Z               4
_symmetry_space_group_name_H-M      'C 2/m'
_symmetry_Int_Tables_number         12
_refine_ls_R_factor_all             0
loop_
_symmetry_equiv_pos_site_id
_symmetry_equiv_pos_as_xyz
1 x,y,z
2 -x,y,-z
3 -x,-y,-z
4 x,-y,z
5 1/2+x,1/2+y,z
6 1/2-x,1/2+y,-z
7 1/2-x,1/2-y,-z
8 1/2+x,1/2-y,z
loop_
_atom_site_label
_atom_site_type_symbol
_atom_site_symmetry_multiplicity
_atom_site_fract_x
_atom_site_fract_y
_atom_site_fract_z
_atom_site_occupancy
O1 O 8 0.68790 0.12360 0.62450 1.0000
O2 O 8 0.62110 0.18070 0.28350 1.0000
O3 O 8 0.64110 0.14340 0.94660 1.0000
O4 O 8 0.81930 0.18120 0.91230 1.0000
O5 O 4 0.50000 0.14560 0.50000 1.0000
O6 O 4 0.59180 0.00000 0.38080 1.0000
O7 O 4 0.75590 0.00000 0.89210 1.0000
O8 O 4 0.50000 0.25790 0.00000 1.0000
Si1 Si 8 0.60010 0.11240 0.44710 1.0000
Si2 Si 8 0.72610 0.11220 0.84370 1.0000
Si3 Si 8 0.61070 0.22510 0.07970 1.0000
Lr1 Lr 2 0.50000 0.00000 0.00000 1.0000
Lr2 Lr 2 0.00000 0.00000 0.50000 1.0000
loop_
_topos_bond_atom_site_label_1
_topos_bond_atom_site_label_2
_topos_bond_site_symmetry_1
_topos_bond_site_symmetry_2
_topos_bond_distance
_topos_bond_type
_topos_bond_multiplicity
O1 Si2 1_0_0_0 1_0_0_0 1.6090 V 8
O1 Si1 1_0_0_0 1_0_0_0 1.6100 V 8
O2 Si3 1_0_0_0 1_0_0_0 1.6090 V 8
O2 Si1 1_0_0_0 1_0_0_0 1.6100 V 8
O3 Si2 1_0_0_0 1_0_0_0 1.6110 V 8
O3 Si3 1_0_0_0 1_0_0_1 1.6100 V 8
O4 Si2 1_0_0_0 1_0_0_0 1.6090 V 8
O4 Si3 1_0_0_0 7_1_0_1 1.6100 V 8
O5 Si1 1_0_0_0 1_0_0_0 1.6100 V 8
O6 Si1 1_0_0_0 1_0_0_0 1.6100 V 8
O7 Si2 1_0_0_0 1_0_0_0 1.6100 V 8
O8 Si3 1_0_0_0 1_0_0_0 1.6090 V 8
Lr2 Lr2 1_0_0_0 1_0_0_1 7.4310 V 2
#End of data_188-TOPOS_RTE-PPT1

data_189-TOPOS_RTH-PPT1
_audit_creation_date                2025-02-23
_audit_creation_method              ToposPro
_chemical_formula_structural        RTH-PPT1
_chemical_formula_sum               'Lr3 O32 Si16'
_citation_special_details
;
Space Group: C2/M->C 2/m. File: RTH-PPT1.cif. 
;
_cell_length_a                      9.762
_cell_length_b                      20.53
_cell_length_c                      9.996
_cell_angle_alpha                   90
_cell_angle_beta                    96.897
_cell_angle_gamma                   90
_cell_volume                        1988.84
_cell_formula_units_Z               2
_symmetry_space_group_name_H-M      'C 2/m'
_symmetry_Int_Tables_number         12
_refine_ls_R_factor_all             0
loop_
_symmetry_equiv_pos_site_id
_symmetry_equiv_pos_as_xyz
1 x,y,z
2 -x,y,-z
3 -x,-y,-z
4 x,-y,z
5 1/2+x,1/2+y,z
6 1/2-x,1/2+y,-z
7 1/2-x,1/2-y,-z
8 1/2+x,1/2-y,z
loop_
_atom_site_label
_atom_site_type_symbol
_atom_site_symmetry_multiplicity
_atom_site_fract_x
_atom_site_fract_y
_atom_site_fract_z
_atom_site_occupancy
O1 O 8 0.15950 0.29400 0.32340 1.0000
O2 O 8 0.97060 0.38300 0.25510 1.0000
O3 O 8 0.89670 0.26210 0.29590 1.0000
O4 O 8 0.25410 0.09150 0.08040 1.0000
O5 O 8 0.29490 0.32620 0.12110 1.0000
O6 O 8 0.17670 0.21130 0.12570 1.0000
O7 O 4 0.00000 0.33490 0.50000 1.0000
O8 O 4 0.43790 0.00000 0.15010 1.0000
O9 O 4 0.50000 0.09840 0.00000 1.0000
O10 O 4 0.00000 0.12860 0.00000 1.0000
Si1 Si 8 0.00660 0.31830 0.34360 1.0000
Si2 Si 8 0.41570 0.07660 0.12140 1.0000
Si3 Si 8 0.25710 0.26730 0.21650 1.0000
Si4 Si 8 0.15890 0.15140 0.02120 1.0000
Lr1 Lr 4 0.00000 0.29028 0.00000 1.0000
Lr2 Lr 2 0.50000 0.50000 0.50000 1.0000
loop_
_topos_bond_atom_site_label_1
_topos_bond_atom_site_label_2
_topos_bond_site_symmetry_1
_topos_bond_site_symmetry_2
_topos_bond_distance
_topos_bond_type
_topos_bond_multiplicity
O1 Si1 1_0_0_0 1_0_0_0 1.6090 V 8
O1 Si3 1_0_0_0 1_0_0_0 1.6110 V 8
O2 Si2 1_0_0_0 8_0_0_0 1.6090 V 8
O2 Si1 1_0_0_0 1_1_0_0 1.6110 V 8
O3 Si1 1_0_0_0 1_1_0_0 1.6080 V 8
O3 Si3 1_0_0_0 8_0_0_0 1.6100 V 8
O4 Si4 1_0_0_0 1_0_0_0 1.6110 V 8
O4 Si2 1_0_0_0 1_0_0_0 1.6110 V 8
O5 Si3 1_0_0_0 1_0_0_0 1.6100 V 8
O5 Si4 1_0_0_0 7_0_0_0 1.6100 V 8
O6 Si4 1_0_0_0 1_0_0_0 1.6090 V 8
O6 Si3 1_0_0_0 1_0_0_0 1.6100 V 8
O7 Si1 1_0_0_0 1_0_0_0 1.6090 V 8
O8 Si2 1_0_0_0 1_0_0_0 1.6090 V 8
O9 Si2 1_0_0_0 1_0_0_0 1.6090 V 8
O10 Si4 1_0_0_0 1_0_0_0 1.6100 V 8
Lr2 Lr2 1_0_0_0 1_0_0_1 9.9960 V 2
Lr2 Lr2 1_0_0_0 1_-1_0_0 9.7620 V 2
#End of data_189-TOPOS_RTH-PPT1

data_190-TOPOS_RUT-PPT1
_audit_creation_date                2025-02-23
_audit_creation_method              ToposPro
_chemical_formula_structural        RUT-PPT1
_chemical_formula_sum               'Lr1 O18 Si9'
_citation_special_details
;
Space Group: C2/M->C 2/m. File: RUT-PPT1.cif. 
;
_cell_length_a                      13.224
_cell_length_b                      13.286
_cell_length_c                      12.454
_cell_angle_alpha                   90
_cell_angle_beta                    114.842
_cell_angle_gamma                   90
_cell_volume                        1985.629
_cell_formula_units_Z               4
_symmetry_space_group_name_H-M      'C 2/m'
_symmetry_Int_Tables_number         12
_refine_ls_R_factor_all             0
loop_
_symmetry_equiv_pos_site_id
_symmetry_equiv_pos_as_xyz
1 x,y,z
2 -x,y,-z
3 -x,-y,-z
4 x,-y,z
5 1/2+x,1/2+y,z
6 1/2-x,1/2+y,-z
7 1/2-x,1/2-y,-z
8 1/2+x,1/2-y,z
loop_
_atom_site_label
_atom_site_type_symbol
_atom_site_symmetry_multiplicity
_atom_site_fract_x
_atom_site_fract_y
_atom_site_fract_z
_atom_site_occupancy
O1 O 8 0.16190 0.14400 0.00400 1.0000
O2 O 8 0.37650 0.18220 0.10810 1.0000
O3 O 8 0.26540 0.14750 0.23640 1.0000
O4 O 8 0.39080 0.18700 0.46060 1.0000
O5 O 8 0.18510 0.12320 0.39530 1.0000
O6 O 8 0.01820 0.16850 0.19350 1.0000
O7 O 8 0.99050 0.17330 0.39060 1.0000
O8 O 4 0.30310 0.00000 0.11710 1.0000
O9 O 4 0.33860 0.00000 0.39060 1.0000
O10 O 4 0.01440 0.00000 0.30220 1.0000
O11 O 4 0.00000 0.26090 0.00000 1.0000
Si1 Si 8 0.27660 0.11830 0.11640 1.0000
Si2 Si 8 0.29510 0.11470 0.37080 1.0000
Si3 Si 8 0.05200 0.11630 0.32060 1.0000
Si4 Si 8 0.93280 0.22280 0.07430 1.0000
Si5 Si 4 0.00000 0.24320 0.50000 1.0000
Lr1 Lr 2 0.00000 0.00000 0.00000 1.0000
Lr2 Lr 2 0.50000 0.00000 0.00000 1.0000
loop_
_topos_bond_atom_site_label_1
_topos_bond_atom_site_label_2
_topos_bond_site_symmetry_1
_topos_bond_site_symmetry_2
_topos_bond_distance
_topos_bond_type
_topos_bond_multiplicity
O1 Si1 1_0_0_0 1_0_0_0 1.6100 V 8
O1 Si4 1_0_0_0 2_1_0_0 1.6090 V 8
O2 Si1 1_0_0_0 1_0_0_0 1.6100 V 8
O2 Si4 1_0_0_0 8_-1_0_0 1.6090 V 8
O3 Si1 1_0_0_0 1_0_0_0 1.6100 V 8
O3 Si2 1_0_0_0 1_0_0_0 1.6100 V 8
O4 Si2 1_0_0_0 1_0_0_0 1.6080 V 8
O4 Si5 1_0_0_0 7_0_0_1 1.6100 V 8
O5 Si2 1_0_0_0 1_0_0_0 1.6110 V 8
O5 Si3 1_0_0_0 1_0_0_0 1.6110 V 8
O6 Si3 1_0_0_0 1_0_0_0 1.6100 V 8
O6 Si4 1_0_0_0 1_-1_0_0 1.6100 V 8
O7 Si3 1_0_0_0 1_1_0_0 1.6100 V 8
O7 Si5 1_0_0_0 1_1_0_0 1.6100 V 8
O8 Si1 1_0_0_0 1_0_0_0 1.6100 V 8
O9 Si2 1_0_0_0 1_0_0_0 1.6110 V 8
O10 Si3 1_0_0_0 1_0_0_0 1.6100 V 8
O11 Si4 1_0_0_0 1_-1_0_0 1.6100 V 8
#End of data_190-TOPOS_RUT-PPT1

data_191-TOPOS_RWR-PPT1
_audit_creation_date                2025-02-23
_audit_creation_method              ToposPro
_chemical_formula_structural        RWR-PPT1
_chemical_formula_sum               'Lr5 O16 Si8'
_citation_special_details
;
Space Group: I41/AMD->I 41/a m d. File: RWR-PPT1.cif. 
;
_cell_length_a                      7.806
_cell_length_b                      7.806
_cell_length_c                      27.35
_cell_angle_alpha                   90
_cell_angle_beta                    90
_cell_angle_gamma                   90
_cell_volume                        1666.535
_cell_formula_units_Z               4
_symmetry_space_group_name_H-M      'I 41/a m d'
_symmetry_Int_Tables_number         141
_refine_ls_R_factor_all             0
loop_
_symmetry_equiv_pos_site_id
_symmetry_equiv_pos_as_xyz
1 x,y,z
2 -x,-y,z
3 x,1/2-y,1/4-z
4 -x,1/2+y,1/4-z
5 -y,-x,-z
6 y,x,-z
7 y,1/2-x,1/4+z
8 -y,1/2+x,1/4+z
9 -x,1/2-y,1/4-z
10 x,1/2+y,1/4-z
11 -x,y,z
12 x,-y,z
13 y,1/2+x,1/4+z
14 -y,1/2-x,1/4+z
15 -y,x,-z
16 y,-x,-z
17 1/2+x,1/2+y,1/2+z
18 1/2-x,1/2-y,1/2+z
19 1/2+x,-y,3/4-z
20 1/2-x,y,3/4-z
21 1/2-y,1/2-x,1/2-z
22 1/2+y,1/2+x,1/2-z
23 1/2+y,-x,3/4+z
24 1/2-y,x,3/4+z
25 1/2-x,-y,3/4-z
26 1/2+x,y,3/4-z
27 1/2-x,1/2+y,1/2+z
28 1/2+x,1/2-y,1/2+z
29 1/2+y,x,3/4+z
30 1/2-y,-x,3/4+z
31 1/2-y,1/2+x,1/2-z
32 1/2+y,1/2-x,1/2-z
loop_
_atom_site_label
_atom_site_type_symbol
_atom_site_symmetry_multiplicity
_atom_site_fract_x
_atom_site_fract_y
_atom_site_fract_z
_atom_site_occupancy
O1 O 32 0.66900 0.28220 0.20750 1.0000
O2 O 16 0.50000 0.28820 0.52160 1.0000
O3 O 8 0.50000 0.00000 0.19000 1.0000
O4 O 8 0.50000 0.75000 0.12500 1.0000
Si1 Si 16 0.50000 0.79590 0.18220 1.0000
Si2 Si 16 0.19110 0.19110 0.00000 1.0000
Lr1 Lr 8 0.50000 0.00000 0.06250 1.0000
Lr2 Lr 8 0.00000 0.00000 0.85358 1.0000
Lr3 Lr 4 0.50000 0.00000 0.25000 1.0000
loop_
_topos_bond_atom_site_label_1
_topos_bond_atom_site_label_2
_topos_bond_site_symmetry_1
_topos_bond_site_symmetry_2
_topos_bond_distance
_topos_bond_type
_topos_bond_multiplicity
O1 Si2 1_0_0_0 9_1_0_0 1.6080 V 32
O1 Si1 1_0_0_0 2_1_1_0 1.6100 V 32
O2 Si2 1_0_0_0 28_0_0_0 1.6130 V 32
O3 Si1 1_0_0_0 1_0_-1_0 1.6070 V 16
O4 Si1 1_0_0_0 1_0_0_0 1.6050 V 16
Lr2 Lr2 1_0_0_0 19_-1_0_1 4.0750 V 8
#End of data_191-TOPOS_RWR-PPT1

data_192-TOPOS_RWY-PPT1
_audit_creation_date                2025-02-23
_audit_creation_method              ToposPro
_chemical_formula_structural        RWY-PPT1
_chemical_formula_sum               'Lr7 O48 Si24'
_citation_special_details
;
Space Group: I-43M->I -4 3 m. File: RWY-PPT1.cif. 
;
_cell_length_a                      17.762
_cell_length_b                      17.762
_cell_length_c                      17.762
_cell_angle_alpha                   90
_cell_angle_beta                    90
_cell_angle_gamma                   90
_cell_volume                        5603.708
_cell_formula_units_Z               2
_symmetry_space_group_name_H-M      'I -4 3 m'
_symmetry_Int_Tables_number         217
_refine_ls_R_factor_all             0
loop_
_symmetry_equiv_pos_site_id
_symmetry_equiv_pos_as_xyz
1 x,y,z
2 -x,-y,z
3 x,-y,-z
4 -x,y,-z
5 z,x,y
6 y,z,x
7 -z,-x,y
8 -y,z,-x
9 z,-x,-y
10 -y,-z,x
11 -z,x,-y
12 y,-z,-x
13 y,x,z
14 -y,-x,z
15 -y,x,-z
16 y,-x,-z
17 x,z,y
18 z,y,x
19 -x,-z,y
20 z,-y,-x
21 -x,z,-y
22 -z,-y,x
23 x,-z,-y
24 -z,y,-x
25 1/2+x,1/2+y,1/2+z
26 1/2-x,1/2-y,1/2+z
27 1/2+x,1/2-y,1/2-z
28 1/2-x,1/2+y,1/2-z
29 1/2+z,1/2+x,1/2+y
30 1/2+y,1/2+z,1/2+x
31 1/2-z,1/2-x,1/2+y
32 1/2-y,1/2+z,1/2-x
33 1/2+z,1/2-x,1/2-y
34 1/2-y,1/2-z,1/2+x
35 1/2-z,1/2+x,1/2-y
36 1/2+y,1/2-z,1/2-x
37 1/2+y,1/2+x,1/2+z
38 1/2-y,1/2-x,1/2+z
39 1/2-y,1/2+x,1/2-z
40 1/2+y,1/2-x,1/2-z
41 1/2+x,1/2+z,1/2+y
42 1/2+z,1/2+y,1/2+x
43 1/2-x,1/2-z,1/2+y
44 1/2+z,1/2-y,1/2-x
45 1/2-x,1/2+z,1/2-y
46 1/2-z,1/2-y,1/2+x
47 1/2+x,1/2-z,1/2-y
48 1/2-z,1/2+y,1/2-x
loop_
_atom_site_label
_atom_site_type_symbol
_atom_site_symmetry_multiplicity
_atom_site_fract_x
_atom_site_fract_y
_atom_site_fract_z
_atom_site_occupancy
O1 O 48 0.04540 0.25000 0.40700 1.0000
O2 O 24 0.14290 0.14290 0.45090 1.0000
O3 O 24 0.00000 0.14950 0.50000 1.0000
Si1 Si 48 0.07400 0.19620 0.47460 1.0000
Lr1 Lr 12 0.00000 0.25000 0.50000 1.0000
Lr2 Lr 2 0.00000 0.00000 0.00000 1.0000
loop_
_topos_bond_atom_site_label_1
_topos_bond_atom_site_label_2
_topos_bond_site_symmetry_1
_topos_bond_site_symmetry_2
_topos_bond_distance
_topos_bond_type
_topos_bond_multiplicity
O1 Si1 1_0_0_0 1_0_0_0 1.6160 V 48
O1 Si1 1_0_0_0 44_-1_0_0 1.6150 V 48
O2 Si1 1_0_0_0 1_0_0_0 1.6030 V 48
O3 Si1 1_0_0_0 1_0_0_0 1.6180 V 48
Lr2 Lr2 1_0_0_0 1_0_1_0 17.7620 V 6
Lr2 Lr2 1_0_0_0 25_-1_-1_-1 15.3820 V 8
#End of data_192-TOPOS_RWY-PPT1

data_193-TOPOS_SAF-PPT1
_audit_creation_date                2025-02-23
_audit_creation_method              ToposPro
_chemical_formula_structural        SAF-PPT1
_chemical_formula_sum               'Lr1 O2 Si1'
_citation_special_details
;
Space Group: IBAM->I b a m. File: SAF-PPT1.cif. 
;
_cell_length_a                      14.709
_cell_length_b                      27.536
_cell_length_c                      8.317
_cell_angle_alpha                   90
_cell_angle_beta                    90
_cell_angle_gamma                   90
_cell_volume                        3368.61
_cell_formula_units_Z               64
_symmetry_space_group_name_H-M      'I b a m'
_symmetry_Int_Tables_number         72
_refine_ls_R_factor_all             0
loop_
_symmetry_equiv_pos_site_id
_symmetry_equiv_pos_as_xyz
1 x,y,z
2 -x,-y,z
3 x,-y,1/2-z
4 -x,y,1/2-z
5 -x,-y,-z
6 x,y,-z
7 -x,y,1/2+z
8 x,-y,1/2+z
9 1/2+x,1/2+y,1/2+z
10 1/2-x,1/2-y,1/2+z
11 1/2+x,1/2-y,-z
12 1/2-x,1/2+y,-z
13 1/2-x,1/2-y,1/2-z
14 1/2+x,1/2+y,1/2-z
15 1/2-x,1/2+y,z
16 1/2+x,1/2-y,z
loop_
_atom_site_label
_atom_site_type_symbol
_atom_site_symmetry_multiplicity
_atom_site_fract_x
_atom_site_fract_y
_atom_site_fract_z
_atom_site_occupancy
O1 O 16 0.82710 0.81670 0.20070 1.0000
O2 O 16 0.87870 0.72900 0.29150 1.0000
O3 O 16 0.82540 0.64150 0.78790 1.0000
O4 O 16 0.67460 0.59010 0.22800 1.0000
O5 O 8 0.00000 0.79720 0.25000 1.0000
O6 O 8 0.91570 0.76000 0.00000 1.0000
O7 O 8 0.69530 0.65530 0.00000 1.0000
O8 O 8 0.39280 0.55820 0.00000 1.0000
O9 O 8 0.00000 0.65930 0.75000 1.0000
O10 O 8 0.89110 0.65740 0.50000 1.0000
O11 O 8 0.50000 0.57070 0.25000 1.0000
O12 O 8 0.37950 0.50000 0.25000 1.0000
Si1 Si 16 0.90480 0.77590 0.18520 1.0000
Si2 Si 16 0.89940 0.67200 0.68680 1.0000
Si3 Si 16 0.71690 0.64240 0.18480 1.0000
Si4 Si 16 0.40000 0.55470 0.19240 1.0000
Lr1 Lr 8 0.00000 0.72395 0.00000 1.0000
Lr2 Lr 8 0.07937 0.77035 0.00000 1.0000
Lr3 Lr 8 0.00000 0.85960 0.00000 1.0000
Lr4 Lr 8 0.90543 0.69058 0.00000 1.0000
Lr5 Lr 8 0.75000 0.75000 0.00000 1.0000
Lr6 Lr 8 0.79712 0.85170 0.00000 1.0000
Lr7 Lr 8 0.57923 0.54928 0.00000 1.0000
Lr8 Lr 4 0.50000 0.50000 0.50000 1.0000
Lr9 Lr 4 0.00000 0.50000 0.50000 1.0000
loop_
_topos_bond_atom_site_label_1
_topos_bond_atom_site_label_2
_topos_bond_site_symmetry_1
_topos_bond_site_symmetry_2
_topos_bond_distance
_topos_bond_type
_topos_bond_multiplicity
O1 Si1 1_0_0_0 1_0_0_0 1.6080 V 16
O1 Si3 1_0_0_0 13_1_1_0 1.6110 V 16
O2 Si1 1_0_0_0 1_0_0_0 1.6110 V 16
O2 Si2 1_0_0_0 6_0_0_1 1.6090 V 16
O3 Si2 1_0_0_0 1_0_0_0 1.6120 V 16
O3 Si3 1_0_0_0 6_0_0_1 1.6120 V 16
O4 Si3 1_0_0_0 1_0_0_0 1.6090 V 16
O4 Si4 1_0_0_0 4_1_0_0 1.6100 V 16
O5 Si1 1_0_0_0 1_-1_0_0 1.6110 V 16
O6 Si1 1_0_0_0 1_0_0_0 1.6090 V 16
O7 Si3 1_0_0_0 1_0_0_0 1.6090 V 16
O8 Si4 1_0_0_0 1_0_0_0 1.6070 V 16
O9 Si2 1_0_0_0 1_-1_0_0 1.6090 V 16
O10 Si2 1_0_0_0 1_0_0_0 1.6090 V 16
O11 Si4 1_0_0_0 1_0_0_0 1.6080 V 16
O12 Si4 1_0_0_0 1_0_0_0 1.6090 V 16
Lr1 Lr2 1_0_0_0 1_0_0_0 1.7310 V 8
Lr1 Lr4 1_0_0_0 1_-1_0_0 1.6670 V 8
Lr2 Lr3 1_0_0_0 1_0_0_0 2.7210 V 8
Lr2 Lr5 1_0_0_0 11_-1_1_0 2.5720 V 8
Lr3 Lr7 1_0_0_0 11_-1_1_0 2.7670 V 8
Lr3 Lr6 1_0_0_0 1_-1_0_0 2.9920 V 8
Lr4 Lr5 1_0_0_0 1_0_0_0 2.8110 V 8
Lr5 Lr6 1_0_0_0 1_0_0_0 2.8850 V 8
Lr7 Lr8 1_0_0_0 3_0_1_0 1.7890 V 8
Lr9 Lr9 1_0_0_0 3_0_1_1 4.1590 V 4
#End of data_193-TOPOS_SAF-PPT1

data_194-TOPOS_SAO-PPT1
_audit_creation_date                2025-02-23
_audit_creation_method              ToposPro
_chemical_formula_structural        SAO-PPT1
_chemical_formula_sum               'Lr13 O56 Si28'
_citation_special_details
;
Space Group: I-4M2->I -4 m 2. File: SAO-PPT1.cif. 
;
_cell_length_a                      13.439
_cell_length_b                      13.439
_cell_length_c                      21.86
_cell_angle_alpha                   90
_cell_angle_beta                    90
_cell_angle_gamma                   90
_cell_volume                        3948.063
_cell_formula_units_Z               2
_symmetry_space_group_name_H-M      'I -4 m 2'
_symmetry_Int_Tables_number         119
_refine_ls_R_factor_all             0
loop_
_symmetry_equiv_pos_site_id
_symmetry_equiv_pos_as_xyz
1 x,y,z
2 -x,-y,z
3 -y,-x,-z
4 y,x,-z
5 -x,y,z
6 x,-y,z
7 -y,x,-z
8 y,-x,-z
9 1/2+x,1/2+y,1/2+z
10 1/2-x,1/2-y,1/2+z
11 1/2-y,1/2-x,1/2-z
12 1/2+y,1/2+x,1/2-z
13 1/2-x,1/2+y,1/2+z
14 1/2+x,1/2-y,1/2+z
15 1/2-y,1/2+x,1/2-z
16 1/2+y,1/2-x,1/2-z
loop_
_atom_site_label
_atom_site_type_symbol
_atom_site_symmetry_multiplicity
_atom_site_fract_x
_atom_site_fract_y
_atom_site_fract_z
_atom_site_occupancy
O1 O 16 0.31390 0.64990 0.33430 1.0000
O2 O 16 0.37660 0.68430 0.44610 1.0000
O3 O 16 0.12530 0.63570 0.36390 1.0000
O4 O 16 0.18620 0.68830 0.47350 1.0000
O5 O 8 0.64120 0.50000 0.40670 1.0000
O6 O 8 0.79240 0.50000 0.29340 1.0000
O7 O 8 0.85720 0.50000 0.44980 1.0000
O8 O 8 0.50000 0.61510 0.36300 1.0000
O9 O 8 0.82100 0.67900 0.25000 1.0000
O10 O 8 0.00000 0.63330 0.45590 1.0000
Si1 Si 16 0.38730 0.61220 0.38770 1.0000
Si2 Si 16 0.11400 0.61430 0.43610 1.0000
Si3 Si 16 0.20550 0.38370 0.31050 1.0000
Si4 Si 8 0.70300 0.29700 0.50000 1.0000
Lr1 Lr 8 0.27832 0.50000 0.44932 1.0000
Lr2 Lr 2 0.50000 0.50000 0.50000 1.0000
Lr3 Lr 4 0.50000 0.50000 0.14795 1.0000
Lr4 Lr 8 0.23114 0.00000 0.35714 1.0000
Lr5 Lr 2 0.00000 0.50000 0.75000 1.0000
Lr6 Lr 2 0.00000 0.50000 0.25000 1.0000
loop_
_topos_bond_atom_site_label_1
_topos_bond_atom_site_label_2
_topos_bond_site_symmetry_1
_topos_bond_site_symmetry_2
_topos_bond_distance
_topos_bond_type
_topos_bond_multiplicity
O1 Si1 1_0_0_0 1_0_0_0 1.6100 V 16
O1 Si3 1_0_0_0 6_0_1_0 1.6110 V 16
O2 Si1 1_0_0_0 1_0_0_0 1.6090 V 16
O2 Si4 1_0_0_0 2_1_1_0 1.6110 V 16
O3 Si2 1_0_0_0 1_0_0_0 1.6110 V 16
O3 Si3 1_0_0_0 6_0_1_0 1.6100 V 16
O4 Si2 1_0_0_0 1_0_0_0 1.6120 V 16
O4 Si4 1_0_0_0 2_1_1_0 1.6100 V 16
O5 Si1 1_0_0_0 2_1_1_0 1.6100 V 16
O6 Si3 1_0_0_0 2_1_1_0 1.6070 V 16
O7 Si2 1_0_0_0 2_1_1_0 1.6120 V 16
O8 Si1 1_0_0_0 1_0_0_0 1.6080 V 16
O9 Si3 1_0_0_0 2_1_1_0 1.6080 V 16
O10 Si2 1_0_0_0 1_0_0_0 1.6120 V 16
Lr3 Lr4 1_0_0_0 11_0_0_0 3.1080 V 8
Lr3 Lr3 1_0_0_0 3_1_1_0 6.4680 V 2
Lr4 Lr5 1_0_0_0 3_1_0_1 4.3060 V 8
#End of data_194-TOPOS_SAO-PPT1

data_195-TOPOS_SAS-PPT1
_audit_creation_date                2025-02-23
_audit_creation_method              ToposPro
_chemical_formula_structural        SAS-PPT1
_chemical_formula_sum               'Lr3 O32 Si16'
_citation_special_details
;
Space Group: I4/MMM->I 4/m m m. File: SAS-PPT1.cif. 
;
_cell_length_a                      14.349
_cell_length_b                      14.349
_cell_length_c                      10.398
_cell_angle_alpha                   90
_cell_angle_beta                    90
_cell_angle_gamma                   90
_cell_volume                        2140.884
_cell_formula_units_Z               2
_symmetry_space_group_name_H-M      'I 4/m m m'
_symmetry_Int_Tables_number         139
_refine_ls_R_factor_all             0
loop_
_symmetry_equiv_pos_site_id
_symmetry_equiv_pos_as_xyz
1 x,y,z
2 -x,-y,z
3 x,-y,-z
4 -x,y,-z
5 -y,-x,-z
6 y,x,-z
7 y,-x,z
8 -y,x,z
9 -x,-y,-z
10 x,y,-z
11 -x,y,z
12 x,-y,z
13 y,x,z
14 -y,-x,z
15 -y,x,-z
16 y,-x,-z
17 1/2+x,1/2+y,1/2+z
18 1/2-x,1/2-y,1/2+z
19 1/2+x,1/2-y,1/2-z
20 1/2-x,1/2+y,1/2-z
21 1/2-y,1/2-x,1/2-z
22 1/2+y,1/2+x,1/2-z
23 1/2+y,1/2-x,1/2+z
24 1/2-y,1/2+x,1/2+z
25 1/2-x,1/2-y,1/2-z
26 1/2+x,1/2+y,1/2-z
27 1/2-x,1/2+y,1/2+z
28 1/2+x,1/2-y,1/2+z
29 1/2+y,1/2+x,1/2+z
30 1/2-y,1/2-x,1/2+z
31 1/2-y,1/2+x,1/2-z
32 1/2+y,1/2-x,1/2-z
loop_
_atom_site_label
_atom_site_type_symbol
_atom_site_symmetry_multiplicity
_atom_site_fract_x
_atom_site_fract_y
_atom_site_fract_z
_atom_site_occupancy
O1 O 32 0.32610 0.86290 0.87230 1.0000
O2 O 8 0.24180 0.00000 0.00000 1.0000
O3 O 8 0.16900 0.16900 0.00000 1.0000
O4 O 16 0.50000 0.87450 0.78650 1.0000
Si1 Si 16 0.26620 0.88930 0.00000 1.0000
Si2 Si 16 0.60900 0.89100 0.75000 1.0000
Lr1 Lr 4 0.50000 0.00000 0.00000 1.0000
Lr2 Lr 2 0.00000 0.00000 0.50000 1.0000
loop_
_topos_bond_atom_site_label_1
_topos_bond_atom_site_label_2
_topos_bond_site_symmetry_1
_topos_bond_site_symmetry_2
_topos_bond_distance
_topos_bond_type
_topos_bond_multiplicity
O1 Si1 1_0_0_0 1_0_0_1 1.6260 V 32
O1 Si2 1_0_0_0 11_1_0_0 1.6270 V 32
O2 Si1 1_0_0_0 1_0_-1_0 1.6270 V 16
O3 Si1 1_0_0_0 8_1_0_0 1.6260 V 16
O4 Si2 1_0_0_0 1_0_0_0 1.6270 V 32
Lr2 Lr2 1_0_0_0 1_0_0_-1 10.3980 V 2
#End of data_195-TOPOS_SAS-PPT1

data_196-TOPOS_SAT-PPT1
_audit_creation_date                2025-02-23
_audit_creation_method              ToposPro
_chemical_formula_structural        SAT-PPT1
_chemical_formula_sum               'Lr1 O12 Si6'
_citation_special_details
;
Space Group: R-3M->R -3 m. File: SAT-PPT1.cif. 
;
_cell_length_a                      12.871
_cell_length_b                      12.871
_cell_length_c                      30.577
_cell_angle_alpha                   90
_cell_angle_beta                    90
_cell_angle_gamma                   120
_cell_volume                        4386.823
_cell_formula_units_Z               12
_symmetry_space_group_name_H-M      'R -3 m'
_symmetry_Int_Tables_number         166
_refine_ls_R_factor_all             0
loop_
_symmetry_equiv_pos_site_id
_symmetry_equiv_pos_as_xyz
1 x,y,z
2 -y,x-y,z
3 -x+y,-x,z
4 x-y,-y,-z
5 -x,-x+y,-z
6 y,x,-z
7 -x,-y,-z
8 y,-x+y,-z
9 x-y,x,-z
10 -x+y,y,z
11 x,x-y,z
12 -y,-x,z
13 2/3+x,1/3+y,1/3+z
14 1/3+x,2/3+y,2/3+z
15 2/3-y,1/3+x-y,1/3+z
16 1/3-y,2/3+x-y,2/3+z
17 2/3-x+y,1/3-x,1/3+z
18 1/3-x+y,2/3-x,2/3+z
19 2/3+x-y,1/3-y,1/3-z
20 1/3+x-y,2/3-y,2/3-z
21 2/3-x,1/3-x+y,1/3-z
22 1/3-x,2/3-x+y,2/3-z
23 2/3+y,1/3+x,1/3-z
24 1/3+y,2/3+x,2/3-z
25 2/3-x,1/3-y,1/3-z
26 1/3-x,2/3-y,2/3-z
27 2/3+y,1/3-x+y,1/3-z
28 1/3+y,2/3-x+y,2/3-z
29 2/3+x-y,1/3+x,1/3-z
30 1/3+x-y,2/3+x,2/3-z
31 2/3-x+y,1/3+y,1/3+z
32 1/3-x+y,2/3+y,2/3+z
33 2/3+x,1/3+x-y,1/3+z
34 1/3+x,2/3+x-y,2/3+z
35 2/3-y,1/3-x,1/3+z
36 1/3-y,2/3-x,2/3+z
loop_
_atom_site_label
_atom_site_type_symbol
_atom_site_symmetry_multiplicity
_atom_site_fract_x
_atom_site_fract_y
_atom_site_fract_z
_atom_site_occupancy
O1 O 36 0.68560 0.70370 0.24780 1.0000
O2 O 18 0.66667 0.68528 0.33333 1.0000
O3 O 18 0.87115 0.74230 0.29550 1.0000
O4 O 18 0.79470 0.89735 0.29670 1.0000
O5 O 18 0.52710 0.76355 0.22300 1.0000
O6 O 18 0.60788 0.94122 0.16667 1.0000
O7 O 18 0.46415 0.92830 0.23020 1.0000
Si1 Si 36 0.75460 0.75740 0.29330 1.0000
Si2 Si 36 0.57110 0.90390 0.21690 1.0000
Lr1 Lr 6 0.33333 0.66667 0.29452 1.0000
Lr2 Lr 3 0.00000 0.00000 0.00000 1.0000
Lr3 Lr 3 0.33333 0.66667 0.16667 1.0000
loop_
_topos_bond_atom_site_label_1
_topos_bond_atom_site_label_2
_topos_bond_site_symmetry_1
_topos_bond_site_symmetry_2
_topos_bond_distance
_topos_bond_type
_topos_bond_multiplicity
O1 Si1 1_0_0_0 1_0_0_0 1.6090 V 36
O1 Si2 1_0_0_0 11_0_1_0 1.6100 V 36
O2 Si1 1_0_0_0 1_0_0_0 1.6090 V 36
O3 Si1 1_0_0_0 1_0_0_0 1.6080 V 36
O4 Si1 1_0_0_0 1_0_0_0 1.6100 V 36
O5 Si2 1_0_0_0 1_0_0_0 1.6110 V 36
O6 Si2 1_0_0_0 1_0_0_0 1.6080 V 36
O7 Si2 1_0_0_0 1_0_0_0 1.6100 V 36
Lr2 Lr2 1_0_0_0 14_-1_-1_-1 12.6140 V 9
#End of data_196-TOPOS_SAT-PPT1

data_197-TOPOS_SAV-PPT1
_audit_creation_date                2025-02-23
_audit_creation_method              ToposPro
_chemical_formula_structural        SAV-PPT1
_chemical_formula_sum               'Lr1 O12 Si6'
_citation_special_details
;
Space Group: P4/NMM->P 4/n m m. File: SAV-PPT1.cif. 
;
_cell_length_a                      18.653
_cell_length_b                      18.653
_cell_length_c                      9.441
_cell_angle_alpha                   90
_cell_angle_beta                    90
_cell_angle_gamma                   90
_cell_volume                        3284.849
_cell_formula_units_Z               8
_symmetry_space_group_name_H-M      'P 4/n m m'
_symmetry_Int_Tables_number         129
_refine_ls_R_factor_all             0
loop_
_symmetry_equiv_pos_site_id
_symmetry_equiv_pos_as_xyz
1 x,y,z
2 -x,-y,z
3 1/2+x,1/2-y,-z
4 1/2-x,1/2+y,-z
5 -y,-x,-z
6 y,x,-z
7 1/2+y,1/2-x,z
8 1/2-y,1/2+x,z
9 1/2-x,1/2-y,-z
10 1/2+x,1/2+y,-z
11 -x,y,z
12 x,-y,z
13 1/2+y,1/2+x,z
14 1/2-y,1/2-x,z
15 -y,x,-z
16 y,-x,-z
loop_
_atom_site_label
_atom_site_type_symbol
_atom_site_symmetry_multiplicity
_atom_site_fract_x
_atom_site_fract_y
_atom_site_fract_z
_atom_site_occupancy
O1 O 16 0.74090 0.09280 0.99430 1.0000
O2 O 16 0.74340 0.61700 0.28120 1.0000
O3 O 16 0.62510 0.69400 0.23780 1.0000
O4 O 8 0.88140 0.88140 0.00000 1.0000
O5 O 8 0.83030 0.00000 0.11580 1.0000
O6 O 8 0.68860 0.00000 0.80700 1.0000
O7 O 8 0.62780 0.12780 0.83760 1.0000
O8 O 8 0.67040 0.67040 0.50000 1.0000
O9 O 8 0.74240 0.75760 0.33000 1.0000
Si1 Si 16 0.81580 0.80440 0.33720 1.0000
Si2 Si 16 0.70350 0.91560 0.83950 1.0000
Si3 Si 16 0.81420 0.08440 0.08630 1.0000
Lr1 Lr 2 0.50000 0.00000 0.35306 1.0000
Lr2 Lr 4 0.75000 0.75000 0.00000 1.0000
Lr3 Lr 2 0.00000 0.00000 0.50000 1.0000
loop_
_topos_bond_atom_site_label_1
_topos_bond_atom_site_label_2
_topos_bond_site_symmetry_1
_topos_bond_site_symmetry_2
_topos_bond_distance
_topos_bond_type
_topos_bond_multiplicity
O1 Si2 1_0_0_0 12_0_1_0 1.6270 V 16
O1 Si3 1_0_0_0 1_0_0_1 1.6270 V 16
O2 Si1 1_0_0_0 14_1_1_0 1.6270 V 16
O2 Si2 1_0_0_0 9_1_1_1 1.6280 V 16
O3 Si1 1_0_0_0 14_1_1_0 1.6260 V 16
O3 Si3 1_0_0_0 7_0_1_0 1.6270 V 16
O4 Si3 1_0_0_0 12_0_1_0 1.6250 V 16
O5 Si3 1_0_0_0 1_0_0_0 1.6270 V 16
O6 Si2 1_0_0_0 1_0_-1_0 1.6280 V 16
O7 Si2 1_0_0_0 8_1_-1_0 1.6280 V 16
O8 Si1 1_0_0_0 9_1_1_1 1.6280 V 16
O9 Si1 1_0_0_0 1_0_0_0 1.6250 V 16
Lr1 Lr3 1_0_0_0 1_0_0_0 9.4290 V 8
Lr1 Lr1 1_0_0_0 1_0_0_-1 9.4410 V 2
Lr3 Lr3 1_0_0_0 1_0_0_1 9.4410 V 2
#End of data_197-TOPOS_SAV-PPT1

data_198-TOPOS_SBE-PPT1
_audit_creation_date                2025-02-23
_audit_creation_method              ToposPro
_chemical_formula_structural        SBE-PPT1
_chemical_formula_sum               'Lr13 O64 Si32'
_citation_special_details
;
Space Group: I4/MMM->I 4/m m m. File: SBE-PPT1.cif. 
;
_cell_length_a                      18.534
_cell_length_b                      18.534
_cell_length_c                      27.134
_cell_angle_alpha                   90
_cell_angle_beta                    90
_cell_angle_gamma                   90
_cell_volume                        9320.778
_cell_formula_units_Z               4
_symmetry_space_group_name_H-M      'I 4/m m m'
_symmetry_Int_Tables_number         139
_refine_ls_R_factor_all             0
loop_
_symmetry_equiv_pos_site_id
_symmetry_equiv_pos_as_xyz
1 x,y,z
2 -x,-y,z
3 x,-y,-z
4 -x,y,-z
5 -y,-x,-z
6 y,x,-z
7 y,-x,z
8 -y,x,z
9 -x,-y,-z
10 x,y,-z
11 -x,y,z
12 x,-y,z
13 y,x,z
14 -y,-x,z
15 -y,x,-z
16 y,-x,-z
17 1/2+x,1/2+y,1/2+z
18 1/2-x,1/2-y,1/2+z
19 1/2+x,1/2-y,1/2-z
20 1/2-x,1/2+y,1/2-z
21 1/2-y,1/2-x,1/2-z
22 1/2+y,1/2+x,1/2-z
23 1/2+y,1/2-x,1/2+z
24 1/2-y,1/2+x,1/2+z
25 1/2-x,1/2-y,1/2-z
26 1/2+x,1/2+y,1/2-z
27 1/2-x,1/2+y,1/2+z
28 1/2+x,1/2-y,1/2+z
29 1/2+y,1/2+x,1/2+z
30 1/2-y,1/2-x,1/2+z
31 1/2-y,1/2+x,1/2-z
32 1/2+y,1/2-x,1/2-z
loop_
_atom_site_label
_atom_site_type_symbol
_atom_site_symmetry_multiplicity
_atom_site_fract_x
_atom_site_fract_y
_atom_site_fract_z
_atom_site_occupancy
O1 O 32 0.26820 0.60240 0.18510 1.0000
O2 O 32 0.23530 0.59590 0.27930 1.0000
O3 O 32 0.09790 0.26880 0.40830 1.0000
O4 O 32 0.36470 0.13350 0.34100 1.0000
O5 O 16 0.32320 0.50000 0.24060 1.0000
O6 O 16 0.36590 0.63410 0.25210 1.0000
O7 O 16 0.13480 0.13480 0.42770 1.0000
O8 O 16 0.00000 0.17600 0.43850 1.0000
O9 O 16 0.09920 0.22240 0.50000 1.0000
O10 O 16 0.31810 0.00000 0.34680 1.0000
O11 O 16 0.35740 0.00000 0.18780 1.0000
O12 O 16 0.39990 0.10010 0.25000 1.0000
Si1 Si 32 0.29820 0.58320 0.23930 1.0000
Si2 Si 32 0.08300 0.20050 0.44370 1.0000
Si3 Si 32 0.29580 0.08350 0.35280 1.0000
Si4 Si 32 0.34710 0.08280 0.20440 1.0000
Lr1 Lr 16 0.26207 0.73793 0.22944 1.0000
Lr2 Lr 16 0.27671 0.72329 0.18158 1.0000
Lr3 Lr 8 0.00000 0.50000 0.22163 1.0000
Lr4 Lr 2 0.50000 0.50000 0.50000 1.0000
Lr5 Lr 4 0.50000 0.50000 0.14760 1.0000
Lr6 Lr 2 0.00000 0.00000 0.50000 1.0000
Lr7 Lr 4 0.00000 0.50000 0.50000 1.0000
loop_
_topos_bond_atom_site_label_1
_topos_bond_atom_site_label_2
_topos_bond_site_symmetry_1
_topos_bond_site_symmetry_2
_topos_bond_distance
_topos_bond_type
_topos_bond_multiplicity
O1 Si1 1_0_0_0 1_0_0_0 1.6120 V 32
O1 Si3 1_0_0_0 20_0_0_0 1.6090 V 32
O2 Si1 1_0_0_0 1_0_0_0 1.6100 V 32
O2 Si4 1_0_0_0 20_0_0_0 1.6080 V 32
O3 Si2 1_0_0_0 1_0_0_0 1.6130 V 32
O3 Si3 1_0_0_0 13_0_0_0 1.6090 V 32
O4 Si3 1_0_0_0 1_0_0_0 1.6100 V 32
O4 Si4 1_0_0_0 21_0_0_0 1.6100 V 32
O5 Si1 1_0_0_0 1_0_0_0 1.6110 V 32
O6 Si1 1_0_0_0 1_0_0_0 1.6080 V 32
O7 Si2 1_0_0_0 1_0_0_0 1.6100 V 32
O8 Si2 1_0_0_0 1_0_0_0 1.6100 V 32
O9 Si2 1_0_0_0 1_0_0_0 1.6090 V 32
O10 Si3 1_0_0_0 1_0_0_0 1.6100 V 32
O11 Si4 1_0_0_0 1_0_0_0 1.6110 V 32
O12 Si4 1_0_0_0 1_0_0_0 1.6100 V 32
Lr1 Lr2 1_0_0_0 1_0_0_0 1.3540 V 16
Lr1 Lr1 1_0_0_0 22_-1_0_0 1.2830 V 8
Lr2 Lr4 1_0_0_0 17_-1_0_-1 8.7680 V 16
Lr3 Lr3 1_0_0_0 21_0_0_0 1.5400 V 4
Lr3 Lr7 1_0_0_0 21_0_0_0 6.0140 V 8
Lr4 Lr5 1_0_0_0 1_0_0_0 9.5620 V 4
Lr4 Lr7 1_0_0_0 1_0_0_0 9.2670 V 8
Lr5 Lr6 1_0_0_0 17_0_0_-1 4.0050 V 4
#End of data_198-TOPOS_SBE-PPT1

data_199-TOPOS_SBN-PPT1
_audit_creation_date                2025-02-23
_audit_creation_method              ToposPro
_chemical_formula_structural        SBN-PPT1
_chemical_formula_sum               'Lr2 O10 Si5'
_citation_special_details
;
Space Group: P63/MMC->P 63/m m c. File: SBN-PPT1.cif. 
;
_cell_length_a                      7.187
_cell_length_b                      7.187
_cell_length_c                      13.846
_cell_angle_alpha                   90
_cell_angle_beta                    90
_cell_angle_gamma                   120
_cell_volume                        619.3701
_cell_formula_units_Z               2
_symmetry_space_group_name_H-M      'P 63/m m c'
_symmetry_Int_Tables_number         194
_refine_ls_R_factor_all             0
loop_
_symmetry_equiv_pos_site_id
_symmetry_equiv_pos_as_xyz
1 x,y,z
2 -x,-y,1/2+z
3 -y,x-y,z
4 -x+y,-x,z
5 x-y,x,1/2+z
6 y,-x+y,1/2+z
7 x-y,-y,-z
8 -x,-x+y,-z
9 y,x,-z
10 -y,-x,1/2-z
11 x,x-y,1/2-z
12 -x+y,y,1/2-z
13 -x,-y,-z
14 x,y,1/2-z
15 y,-x+y,-z
16 x-y,x,-z
17 -x+y,-x,1/2-z
18 -y,x-y,1/2-z
19 -x+y,y,z
20 x,x-y,z
21 -y,-x,z
22 y,x,1/2+z
23 -x,-x+y,1/2+z
24 x-y,-y,1/2+z
loop_
_atom_site_label
_atom_site_type_symbol
_atom_site_symmetry_multiplicity
_atom_site_fract_x
_atom_site_fract_y
_atom_site_fract_z
_atom_site_occupancy
O1 O 12 0.87815 0.75630 0.34500 1.0000
O2 O 6 0.54580 0.09160 0.25000 1.0000
O3 O 2 0.00000 0.00000 0.00000 1.0000
Si1 Si 6 0.80365 0.60730 0.25000 1.0000
Si2 Si 4 0.00000 0.00000 0.38400 1.0000
Lr1 Lr 2 0.66667 0.33333 0.75000 1.0000
Lr2 Lr 2 0.00000 0.00000 0.25000 1.0000
loop_
_topos_bond_atom_site_label_1
_topos_bond_atom_site_label_2
_topos_bond_site_symmetry_1
_topos_bond_site_symmetry_2
_topos_bond_distance
_topos_bond_type
_topos_bond_multiplicity
O1 Si1 1_0_0_0 1_0_0_0 1.6090 V 12
O1 Si2 1_0_0_0 1_1_1_0 1.6100 V 12
O2 Si1 1_0_0_0 3_1_0_0 1.6140 V 12
O3 Si2 1_0_0_0 10_0_0_0 1.6060 V 4
Lr1 Lr1 1_0_0_0 2_1_0_0 8.0710 V 6
#End of data_199-TOPOS_SBN-PPT1

data_200-TOPOS_SBS-PPT1
_audit_creation_date                2025-02-23
_audit_creation_method              ToposPro
_chemical_formula_structural        SBS-PPT1
_chemical_formula_sum               'Lr19 O96 Si48'
_citation_special_details
;
Space Group: P63/MMC->P 63/m m c. File: SBS-PPT1.cif. 
;
_cell_length_a                      17.193
_cell_length_b                      17.193
_cell_length_c                      27.333
_cell_angle_alpha                   90
_cell_angle_beta                    90
_cell_angle_gamma                   120
_cell_volume                        6997.152
_cell_formula_units_Z               2
_symmetry_space_group_name_H-M      'P 63/m m c'
_symmetry_Int_Tables_number         194
_refine_ls_R_factor_all             0
loop_
_symmetry_equiv_pos_site_id
_symmetry_equiv_pos_as_xyz
1 x,y,z
2 -x,-y,1/2+z
3 -y,x-y,z
4 -x+y,-x,z
5 x-y,x,1/2+z
6 y,-x+y,1/2+z
7 x-y,-y,-z
8 -x,-x+y,-z
9 y,x,-z
10 -y,-x,1/2-z
11 x,x-y,1/2-z
12 -x+y,y,1/2-z
13 -x,-y,-z
14 x,y,1/2-z
15 y,-x+y,-z
16 x-y,x,-z
17 -x+y,-x,1/2-z
18 -y,x-y,1/2-z
19 -x+y,y,z
20 x,x-y,z
21 -y,-x,z
22 y,x,1/2+z
23 -x,-x+y,1/2+z
24 x-y,-y,1/2+z
loop_
_atom_site_label
_atom_site_type_symbol
_atom_site_symmetry_multiplicity
_atom_site_fract_x
_atom_site_fract_y
_atom_site_fract_z
_atom_site_occupancy
O1 O 24 0.00290 0.28800 0.59200 1.0000
O2 O 24 0.10770 0.40950 0.52790 1.0000
O3 O 24 0.69340 0.09700 0.65870 1.0000
O4 O 24 0.66810 0.11700 0.56570 1.0000
O5 O 12 0.00000 0.24300 0.50000 1.0000
O6 O 12 0.14095 0.28190 0.55470 1.0000
O7 O 12 0.26245 0.52490 0.48860 1.0000
O8 O 12 0.83080 0.16920 0.59830 1.0000
O9 O 12 0.43140 0.56860 0.50060 1.0000
O10 O 12 0.74020 0.25980 0.68870 1.0000
O11 O 12 0.86120 0.43060 0.67910 1.0000
O12 O 12 0.87590 0.33540 0.75000 1.0000
Si1 Si 24 0.06320 0.30570 0.54360 1.0000
Si2 Si 24 0.72610 0.09510 0.60370 1.0000
Si3 Si 24 0.84510 0.33310 0.69410 1.0000
Si4 Si 24 0.33210 0.48800 0.48790 1.0000
Lr1 Lr 4 0.00000 0.00000 0.47105 1.0000
Lr2 Lr 2 0.33333 0.66667 0.75000 1.0000
Lr3 Lr 12 0.01902 0.50951 0.47926 1.0000
Lr4 Lr 4 0.66667 0.33333 0.60330 1.0000
Lr5 Lr 2 0.00000 0.00000 0.75000 1.0000
Lr6 Lr 2 0.66667 0.33333 0.75000 1.0000
Lr7 Lr 12 0.51868 0.03736 0.56828 1.0000
loop_
_topos_bond_atom_site_label_1
_topos_bond_atom_site_label_2
_topos_bond_site_symmetry_1
_topos_bond_site_symmetry_2
_topos_bond_distance
_topos_bond_type
_topos_bond_multiplicity
O1 Si1 1_0_0_0 1_0_0_0 1.6130 V 24
O1 Si2 1_0_0_0 21_0_1_0 1.6100 V 24
O2 Si1 1_0_0_0 1_0_0_0 1.6090 V 24
O2 Si4 1_0_0_0 19_0_0_0 1.6080 V 24
O3 Si2 1_0_0_0 1_0_0_0 1.6110 V 24
O3 Si3 1_0_0_0 21_1_1_0 1.6090 V 24
O4 Si2 1_0_0_0 1_0_0_0 1.6090 V 24
O4 Si4 1_0_0_0 8_1_0_1 1.6110 V 24
O5 Si1 1_0_0_0 1_0_0_0 1.6100 V 24
O6 Si1 1_0_0_0 1_0_0_0 1.6100 V 24
O7 Si4 1_0_0_0 1_0_0_0 1.6110 V 24
O8 Si2 1_0_0_0 1_0_0_0 1.6100 V 24
O9 Si4 1_0_0_0 1_0_0_0 1.6090 V 24
O10 Si3 1_0_0_0 1_0_0_0 1.6090 V 24
O11 Si3 1_0_0_0 1_0_0_0 1.6100 V 24
O12 Si3 1_0_0_0 1_0_0_0 1.6110 V 24
Lr1 Lr1 1_0_0_0 7_0_0_1 1.5830 V 2
Lr1 Lr5 1_0_0_0 2_0_0_-1 6.0420 V 4
Lr2 Lr5 1_0_0_0 1_0_0_0 9.9260 V 6
Lr2 Lr7 1_0_0_0 10_0_1_1 7.4250 V 12
Lr3 Lr7 1_0_0_0 9_0_0_1 1.3280 V 12
Lr3 Lr3 1_0_0_0 8_0_0_1 1.2670 V 6
#End of data_200-TOPOS_SBS-PPT1

data_201-TOPOS_SBT-PPT1
_audit_creation_date                2025-02-23
_audit_creation_method              ToposPro
_chemical_formula_structural        SBT-PPT1
_chemical_formula_sum               'Lr19 O96 Si48'
_citation_special_details
;
Space Group: R-3M->R -3 m. File: SBT-PPT1.cif. 
;
_cell_length_a                      17.191
_cell_length_b                      17.191
_cell_length_c                      41.03
_cell_angle_alpha                   90
_cell_angle_beta                    90
_cell_angle_gamma                   120
_cell_volume                        10501.09
_cell_formula_units_Z               3
_symmetry_space_group_name_H-M      'R -3 m'
_symmetry_Int_Tables_number         166
_refine_ls_R_factor_all             0
loop_
_symmetry_equiv_pos_site_id
_symmetry_equiv_pos_as_xyz
1 x,y,z
2 -y,x-y,z
3 -x+y,-x,z
4 x-y,-y,-z
5 -x,-x+y,-z
6 y,x,-z
7 -x,-y,-z
8 y,-x+y,-z
9 x-y,x,-z
10 -x+y,y,z
11 x,x-y,z
12 -y,-x,z
13 2/3+x,1/3+y,1/3+z
14 1/3+x,2/3+y,2/3+z
15 2/3-y,1/3+x-y,1/3+z
16 1/3-y,2/3+x-y,2/3+z
17 2/3-x+y,1/3-x,1/3+z
18 1/3-x+y,2/3-x,2/3+z
19 2/3+x-y,1/3-y,1/3-z
20 1/3+x-y,2/3-y,2/3-z
21 2/3-x,1/3-x+y,1/3-z
22 1/3-x,2/3-x+y,2/3-z
23 2/3+y,1/3+x,1/3-z
24 1/3+y,2/3+x,2/3-z
25 2/3-x,1/3-y,1/3-z
26 1/3-x,2/3-y,2/3-z
27 2/3+y,1/3-x+y,1/3-z
28 1/3+y,2/3-x+y,2/3-z
29 2/3+x-y,1/3+x,1/3-z
30 1/3+x-y,2/3+x,2/3-z
31 2/3-x+y,1/3+y,1/3+z
32 1/3-x+y,2/3+y,2/3+z
33 2/3+x,1/3+x-y,1/3+z
34 1/3+x,2/3+x-y,2/3+z
35 2/3-y,1/3-x,1/3+z
36 1/3-y,2/3-x,2/3+z
loop_
_atom_site_label
_atom_site_type_symbol
_atom_site_symmetry_multiplicity
_atom_site_fract_x
_atom_site_fract_y
_atom_site_fract_z
_atom_site_occupancy
O1 O 36 0.09680 0.40370 0.10570 1.0000
O2 O 36 0.88300 0.55110 0.95630 1.0000
O3 O 36 0.89230 0.59050 0.01860 1.0000
O4 O 36 0.99710 0.28510 0.06130 1.0000
O5 O 18 0.13820 0.56910 0.11990 1.0000
O6 O 18 0.66140 0.83070 0.06550 1.0000
O7 O 18 0.25995 0.51990 0.12540 1.0000
O8 O 18 0.12518 0.45852 0.16667 1.0000
O9 O 18 0.86280 0.43140 0.00040 1.0000
O10 O 18 0.73750 0.47500 0.99250 1.0000
O11 O 18 0.00000 0.24290 0.00000 1.0000
O12 O 18 0.85910 0.14090 0.03640 1.0000
Si1 Si 36 0.15500 0.48780 0.12940 1.0000
Si2 Si 36 0.93680 0.24240 0.02910 1.0000
Si3 Si 36 0.63090 0.90490 0.06910 1.0000
Si4 Si 36 0.84410 0.51200 0.99190 1.0000
Lr1 Lr 18 0.01902 0.50951 0.01382 1.0000
Lr2 Lr 18 0.03738 0.51869 0.04552 1.0000
Lr3 Lr 3 0.33333 0.66667 0.16667 1.0000
Lr4 Lr 6 0.00000 0.00000 0.19163 1.0000
Lr5 Lr 6 0.00000 0.00000 0.98070 1.0000
Lr6 Lr 6 0.33333 0.66667 0.06887 1.0000
loop_
_topos_bond_atom_site_label_1
_topos_bond_atom_site_label_2
_topos_bond_site_symmetry_1
_topos_bond_site_symmetry_2
_topos_bond_distance
_topos_bond_type
_topos_bond_multiplicity
O1 Si1 1_0_0_0 1_0_0_0 1.6090 V 36
O1 Si3 1_0_0_0 12_1_1_0 1.6100 V 36
O2 Si4 1_0_0_0 1_0_0_0 1.6070 V 36
O2 Si3 1_0_0_0 6_0_0_1 1.6100 V 36
O3 Si4 1_0_0_0 1_0_0_-1 1.6090 V 36
O3 Si2 1_0_0_0 11_0_0_0 1.6110 V 36
O4 Si2 1_0_0_0 1_0_0_0 1.6120 V 36
O4 Si3 1_0_0_0 12_2_1_0 1.6100 V 36
O5 Si1 1_0_0_0 1_0_0_0 1.6100 V 36
O6 Si3 1_0_0_0 1_0_0_0 1.6100 V 36
O7 Si1 1_0_0_0 1_0_0_0 1.6100 V 36
O8 Si1 1_0_0_0 1_0_0_0 1.6110 V 36
O9 Si4 1_0_0_0 1_0_0_-1 1.6090 V 36
O10 Si4 1_0_0_0 1_0_0_0 1.6120 V 36
O11 Si2 1_0_0_0 1_-1_0_0 1.6110 V 36
O12 Si2 1_0_0_0 1_0_0_0 1.6090 V 36
Lr1 Lr2 1_0_0_0 1_0_0_0 1.3290 V 18
Lr1 Lr1 1_0_0_0 5_0_0_0 1.2680 V 9
Lr2 Lr4 1_0_0_0 19_-1_0_0 6.7850 V 18
Lr4 Lr4 1_0_0_0 19_-1_-1_0 10.1340 V 9
Lr4 Lr5 1_0_0_0 4_0_0_1 7.0710 V 6
Lr5 Lr5 1_0_0_0 4_0_0_2 1.5840 V 3
#End of data_201-TOPOS_SBT-PPT1

data_202-TOPOS_SEW-PPT1
_audit_creation_date                2025-02-23
_audit_creation_method              ToposPro
_chemical_formula_structural        SEW-PPT1
_chemical_formula_sum               'Lr13 O66 Si33'
_citation_special_details
;
Space Group: PMMN->P m m n. File: SEW-PPT1.cif. 
;
_cell_length_a                      23.7289
_cell_length_b                      11.2932
_cell_length_c                      14.4719
_cell_angle_alpha                   90
_cell_angle_beta                    90
_cell_angle_gamma                   90
_cell_volume                        3878.11
_cell_formula_units_Z               2
_symmetry_space_group_name_H-M      'P m m n'
_symmetry_Int_Tables_number         59
_refine_ls_R_factor_all             0
loop_
_symmetry_equiv_pos_site_id
_symmetry_equiv_pos_as_xyz
1 x,y,z
2 -x,-y,z
3 1/2+x,1/2-y,-z
4 1/2-x,1/2+y,-z
5 1/2-x,1/2-y,-z
6 1/2+x,1/2+y,-z
7 -x,y,z
8 x,-y,z
loop_
_atom_site_label
_atom_site_type_symbol
_atom_site_symmetry_multiplicity
_atom_site_fract_x
_atom_site_fract_y
_atom_site_fract_z
_atom_site_occupancy
O1 O 8 0.05543 0.19555 0.17190 1.0000
O2 O 8 0.07512 0.61591 0.38167 1.0000
O3 O 8 0.16571 0.19911 0.19258 1.0000
O4 O 8 0.24960 0.27613 0.08893 1.0000
O5 O 8 0.16225 0.17335 0.01231 1.0000
O6 O 8 0.15055 0.38462 0.08941 1.0000
O7 O 8 0.10080 0.16474 0.33689 1.0000
O8 O 8 0.55545 0.28341 0.13842 1.0000
O9 O 8 0.34135 0.35883 0.16791 1.0000
O10 O 8 0.40894 0.31987 0.30880 1.0000
O11 O 8 0.08670 0.21961 0.51119 1.0000
O12 O 4 0.10752 0.50000 0.23340 1.0000
O13 O 4 0.27977 0.50000 0.06614 1.0000
O14 O 4 0.42731 0.50000 0.19816 1.0000
O15 O 4 0.40936 0.50000 0.42430 1.0000
O16 O 4 0.00000 0.16675 0.01471 1.0000
O17 O 4 0.00000 0.21353 0.39858 1.0000
O18 O 4 0.50000 0.11632 0.05359 1.0000
O19 O 4 0.50000 0.37194 0.40252 1.0000
O20 O 4 0.55533 0.00000 0.92534 1.0000
O21 O 4 0.11041 0.00000 0.20831 1.0000
O22 O 2 0.00000 0.00000 0.14223 1.0000
O23 O 2 0.00000 0.50000 0.28324 1.0000
Si1 Si 8 0.18233 0.25904 0.09525 1.0000
Si2 Si 8 0.10781 0.13998 0.22798 1.0000
Si3 Si 8 0.30196 0.36580 0.07741 1.0000
Si4 Si 8 0.40560 0.36507 0.20338 1.0000
Si5 Si 8 0.06572 0.24691 0.40747 1.0000
Si6 Si 8 0.43232 0.36756 0.40646 1.0000
Si7 Si 4 0.06427 0.50000 0.31924 1.0000
Si8 Si 4 0.11636 0.50000 0.12307 1.0000
Si9 Si 4 0.00000 0.14051 0.12400 1.0000
Si10 Si 4 0.50000 0.25521 0.07828 1.0000
Si11 Si 2 0.50000 0.00000 0.98945 1.0000
Lr1 Lr 8 0.08737 0.25668 0.02772 1.0000
Lr2 Lr 4 0.21369 0.50000 0.61073 1.0000
Lr3 Lr 4 0.00000 0.32132 0.18479 1.0000
Lr4 Lr 4 0.09710 0.00000 0.01469 1.0000
Lr5 Lr 2 0.00000 0.00000 0.36885 1.0000
Lr6 Lr 2 0.00000 0.50000 0.62841 1.0000
Lr7 Lr 2 0.50000 0.50000 0.19566 1.0000
loop_
_topos_bond_atom_site_label_1
_topos_bond_atom_site_label_2
_topos_bond_site_symmetry_1
_topos_bond_site_symmetry_2
_topos_bond_distance
_topos_bond_type
_topos_bond_multiplicity
O1 Si9 1_0_0_0 1_0_0_0 1.6110 V 8
O1 Si2 1_0_0_0 1_0_0_0 1.6120 V 8
O2 Si7 1_0_0_0 1_0_0_0 1.6110 V 8
O2 Si5 1_0_0_0 8_0_1_0 1.6090 V 8
O3 Si2 1_0_0_0 1_0_0_0 1.6110 V 8
O3 Si1 1_0_0_0 1_0_0_0 1.6120 V 8
O4 Si1 1_0_0_0 1_0_0_0 1.6100 V 8
O4 Si3 1_0_0_0 1_0_0_0 1.6120 V 8
O5 Si1 1_0_0_0 1_0_0_0 1.6140 V 8
O5 Si3 1_0_0_0 5_0_0_0 1.6130 V 8
O6 Si1 1_0_0_0 1_0_0_0 1.6080 V 8
O6 Si8 1_0_0_0 1_0_0_0 1.6100 V 8
O7 Si2 1_0_0_0 1_0_0_0 1.6090 V 8
O7 Si5 1_0_0_0 1_0_0_0 1.6120 V 8
O8 Si10 1_0_0_0 1_0_0_0 1.6090 V 8
O8 Si4 1_0_0_0 7_1_0_0 1.6090 V 8
O9 Si4 1_0_0_0 1_0_0_0 1.6100 V 8
O9 Si3 1_0_0_0 1_0_0_0 1.6110 V 8
O10 Si4 1_0_0_0 1_0_0_0 1.6110 V 8
O10 Si6 1_0_0_0 1_0_0_0 1.6110 V 8
O11 Si5 1_0_0_0 1_0_0_0 1.6110 V 8
O11 Si6 1_0_0_0 5_0_0_1 1.6100 V 8
O12 Si8 1_0_0_0 1_0_0_0 1.6100 V 4
O12 Si7 1_0_0_0 1_0_0_0 1.6110 V 4
O13 Si3 1_0_0_0 1_0_0_0 1.6130 V 8
O14 Si4 1_0_0_0 1_0_0_0 1.6100 V 8
O15 Si6 1_0_0_0 1_0_0_0 1.6130 V 8
O16 Si9 1_0_0_0 1_0_0_0 1.6090 V 4
O16 Si10 1_0_0_0 3_-1_0_0 1.6090 V 4
O17 Si5 1_0_0_0 1_0_0_0 1.6100 V 8
O18 Si10 1_0_0_0 1_0_0_0 1.6090 V 4
O18 Si11 1_0_0_0 1_0_0_-1 1.6080 V 4
O19 Si6 1_0_0_0 1_0_0_0 1.6080 V 8
O20 Si8 1_0_0_0 3_0_0_1 1.6090 V 4
O20 Si11 1_0_0_0 1_0_0_0 1.6080 V 4
O21 Si2 1_0_0_0 1_0_0_0 1.6070 V 8
O22 Si9 1_0_0_0 1_0_0_0 1.6090 V 4
O23 Si7 1_0_0_0 1_0_0_0 1.6120 V 4
Lr1 Lr4 1_0_0_0 1_0_0_0 2.9140 V 8
Lr2 Lr6 1_0_0_0 1_0_0_0 5.0770 V 4
Lr2 Lr2 1_0_0_0 4_0_-1_1 6.7180 V 4
#End of data_202-TOPOS_SEW-PPT1

data_203-TOPOS_SFE-PPT1
_audit_creation_date                2025-02-23
_audit_creation_method              ToposPro
_chemical_formula_structural        SFE-PPT1
_chemical_formula_sum               'Lr4 O14 Si7'
_citation_special_details
;
Space Group: P21/M->P 21/m. File: SFE-PPT1.cif. 
;
_cell_length_a                      11.457
_cell_length_b                      5.255
_cell_length_c                      13.994
_cell_angle_alpha                   90
_cell_angle_beta                    100.96
_cell_angle_gamma                   90
_cell_volume                        827.1627
_cell_formula_units_Z               2
_symmetry_space_group_name_H-M      'P 21/m'
_symmetry_Int_Tables_number         11
_refine_ls_R_factor_all             0
loop_
_symmetry_equiv_pos_site_id
_symmetry_equiv_pos_as_xyz
1 x,y,z
2 -x,1/2+y,-z
3 -x,-y,-z
4 x,1/2-y,z
loop_
_atom_site_label
_atom_site_type_symbol
_atom_site_symmetry_multiplicity
_atom_site_fract_x
_atom_site_fract_y
_atom_site_fract_z
_atom_site_occupancy
O1 O 4 0.30560 0.50000 0.14550 1.0000
O2 O 4 0.47920 0.00000 0.37570 1.0000
O3 O 4 0.29150 0.50010 0.82650 1.0000
O4 O 2 0.28470 0.25000 0.30400 1.0000
O5 O 2 0.10870 0.25000 0.15360 1.0000
O6 O 2 0.36740 0.25000 0.49400 1.0000
O7 O 2 0.34750 0.25000 0.67940 1.0000
O8 O 2 0.65640 0.25000 0.00810 1.0000
O9 O 2 0.49400 0.25000 0.84850 1.0000
O10 O 2 0.87570 0.25000 0.10900 1.0000
O11 O 2 0.00000 0.00000 0.00000 1.0000
Si1 Si 2 0.25120 0.25000 0.18690 1.0000
Si2 Si 2 0.40240 0.25000 0.38780 1.0000
Si3 Si 2 0.43870 0.25000 0.60490 1.0000
Si4 Si 2 0.63470 0.25000 0.89100 1.0000
Si5 Si 2 0.35640 0.25000 0.79570 1.0000
Si6 Si 2 0.73700 0.25000 0.11560 1.0000
Si7 Si 2 0.99580 0.25000 0.06530 1.0000
Lr1 Lr 2 0.84931 0.25000 0.61267 1.0000
Lr2 Lr 2 0.20760 0.25000 0.98934 1.0000
Lr3 Lr 2 0.50344 0.25000 0.23412 1.0000
Lr4 Lr 2 0.45231 0.25000 0.03846 1.0000
loop_
_topos_bond_atom_site_label_1
_topos_bond_atom_site_label_2
_topos_bond_site_symmetry_1
_topos_bond_site_symmetry_2
_topos_bond_distance
_topos_bond_type
_topos_bond_multiplicity
O1 Si1 1_0_0_0 1_0_0_0 1.6090 V 4
O1 Si4 1_0_0_0 2_1_0_1 1.6090 V 4
O2 Si2 1_0_0_0 1_0_0_0 1.6080 V 4
O2 Si3 1_0_0_0 2_1_-1_1 1.6090 V 4
O3 Si5 1_0_0_0 1_0_0_0 1.6090 V 4
O3 Si6 1_0_0_0 2_1_0_1 1.6090 V 4
O4 Si2 1_0_0_0 1_0_0_0 1.6100 V 2
O4 Si1 1_0_0_0 1_0_0_0 1.6100 V 2
O5 Si1 1_0_0_0 1_0_0_0 1.6100 V 2
O5 Si7 1_0_0_0 1_-1_0_0 1.6100 V 2
O6 Si3 1_0_0_0 1_0_0_0 1.6110 V 2
O6 Si2 1_0_0_0 1_0_0_0 1.6110 V 2
O7 Si3 1_0_0_0 1_0_0_0 1.6100 V 2
O7 Si5 1_0_0_0 1_0_0_0 1.6110 V 2
O8 Si6 1_0_0_0 1_0_0_0 1.6090 V 2
O8 Si4 1_0_0_0 1_0_0_-1 1.6100 V 2
O9 Si4 1_0_0_0 1_0_0_0 1.6090 V 2
O9 Si5 1_0_0_0 1_0_0_0 1.6090 V 2
O10 Si7 1_0_0_0 1_0_0_0 1.6090 V 2
O10 Si6 1_0_0_0 1_0_0_0 1.6090 V 2
O11 Si7 1_0_0_0 1_-1_0_0 1.6060 V 4
Lr1 Lr1 1_0_0_0 2_2_0_1 5.7370 V 2
Lr2 Lr4 1_0_0_0 1_0_0_1 2.7570 V 2
Lr3 Lr4 1_0_0_0 1_0_0_0 2.6890 V 2
#End of data_203-TOPOS_SFE-PPT1

data_204-TOPOS_SFF-PPT1
_audit_creation_date                2025-02-23
_audit_creation_method              ToposPro
_chemical_formula_structural        SFF-PPT1
_chemical_formula_sum               'Lr5 O32 Si16'
_citation_special_details
;
Space Group: P21/M->P 21/m. File: SFF-PPT1.cif. 
;
_cell_length_a                      11.454
_cell_length_b                      21.695
_cell_length_c                      7.227
_cell_angle_alpha                   90
_cell_angle_beta                    93.154
_cell_angle_gamma                   90
_cell_volume                        1793.15
_cell_formula_units_Z               2
_symmetry_space_group_name_H-M      'P 21/m'
_symmetry_Int_Tables_number         11
_refine_ls_R_factor_all             0
loop_
_symmetry_equiv_pos_site_id
_symmetry_equiv_pos_as_xyz
1 x,y,z
2 -x,1/2+y,-z
3 -x,-y,-z
4 x,1/2-y,z
loop_
_atom_site_label
_atom_site_type_symbol
_atom_site_symmetry_multiplicity
_atom_site_fract_x
_atom_site_fract_y
_atom_site_fract_z
_atom_site_occupancy
O1 O 4 0.22500 0.92480 0.00970 1.0000
O2 O 4 0.32030 0.97580 0.72500 1.0000
O3 O 4 0.35890 0.02180 0.06140 1.0000
O4 O 4 0.15230 0.03340 0.89020 1.0000
O5 O 4 0.02860 0.60790 0.15440 1.0000
O6 O 4 0.22410 0.66730 0.24510 1.0000
O7 O 4 0.12260 0.67900 0.91010 1.0000
O8 O 4 0.32660 0.63340 0.56500 1.0000
O9 O 4 0.10710 0.66880 0.54730 1.0000
O10 O 4 0.38570 0.53440 0.38340 1.0000
O11 O 4 0.52210 0.57510 0.66080 1.0000
O12 O 4 0.93410 0.63090 0.74230 1.0000
O13 O 4 0.94750 0.98990 0.77220 1.0000
O14 O 4 0.06770 0.06130 0.55590 1.0000
O15 O 4 0.24950 0.06270 0.34820 1.0000
O16 O 2 0.27350 0.75000 0.50310 1.0000
O17 O 2 0.97850 0.75000 0.71280 1.0000
Si1 Si 4 0.26430 0.98900 0.92050 1.0000
Si2 Si 4 0.15020 0.63240 0.08040 1.0000
Si3 Si 4 0.23330 0.67980 0.46500 1.0000
Si4 Si 4 0.38820 0.56690 0.58390 1.0000
Si5 Si 4 0.03500 0.68200 0.72820 1.0000
Si6 Si 4 0.03470 0.04800 0.76560 1.0000
Si7 Si 4 0.10920 0.06630 0.34730 1.0000
Si8 Si 4 0.36790 0.03150 0.28280 1.0000
Lr1 Lr 4 0.15445 0.94300 0.50514 1.0000
Lr2 Lr 4 0.95088 0.96891 0.89979 1.0000
Lr3 Lr 2 0.62487 0.75000 0.13586 1.0000
loop_
_topos_bond_atom_site_label_1
_topos_bond_atom_site_label_2
_topos_bond_site_symmetry_1
_topos_bond_site_symmetry_2
_topos_bond_distance
_topos_bond_type
_topos_bond_multiplicity
O1 Si2 1_0_0_0 4_0_1_0 1.6070 V 4
O1 Si1 1_0_0_0 1_0_0_-1 1.6090 V 4
O2 Si1 1_0_0_0 1_0_0_0 1.6090 V 4
O2 Si4 1_0_0_0 4_0_1_0 1.6090 V 4
O3 Si8 1_0_0_0 1_0_0_0 1.6120 V 4
O3 Si1 1_0_0_0 1_0_-1_-1 1.6110 V 4
O4 Si6 1_0_0_0 1_0_0_0 1.6100 V 4
O4 Si1 1_0_0_0 1_0_-1_0 1.6100 V 4
O5 Si2 1_0_0_0 1_0_0_0 1.6090 V 4
O5 Si6 1_0_0_0 2_0_0_1 1.6110 V 4
O6 Si3 1_0_0_0 1_0_0_0 1.6100 V 4
O6 Si2 1_0_0_0 1_0_0_0 1.6110 V 4
O7 Si5 1_0_0_0 1_0_0_0 1.6110 V 4
O7 Si2 1_0_0_0 1_0_0_1 1.6110 V 4
O8 Si4 1_0_0_0 1_0_0_0 1.6090 V 4
O8 Si3 1_0_0_0 1_0_0_0 1.6100 V 4
O9 Si5 1_0_0_0 1_0_0_0 1.6100 V 4
O9 Si3 1_0_0_0 1_0_0_0 1.6110 V 4
O10 Si4 1_0_0_0 1_0_0_0 1.6100 V 4
O10 Si8 1_0_0_0 4_0_0_0 1.6120 V 4
O11 Si4 1_0_0_0 1_0_0_0 1.6120 V 4
O11 Si8 1_0_0_0 2_1_0_1 1.6100 V 4
O12 Si5 1_0_0_0 1_1_0_0 1.6090 V 4
O12 Si7 1_0_0_0 2_1_0_1 1.6110 V 4
O13 Si7 1_0_0_0 3_1_1_1 1.6100 V 4
O13 Si6 1_0_0_0 1_1_1_0 1.6110 V 4
O14 Si6 1_0_0_0 1_0_0_0 1.6080 V 4
O14 Si7 1_0_0_0 1_0_0_0 1.6090 V 4
O15 Si7 1_0_0_0 1_0_0_0 1.6090 V 4
O15 Si8 1_0_0_0 1_0_0_0 1.6100 V 4
O16 Si3 1_0_0_0 1_0_0_0 1.6100 V 4
O17 Si5 1_0_0_0 1_1_0_0 1.6120 V 4
Lr2 Lr2 1_0_0_0 3_2_2_2 2.2370 V 2
Lr3 Lr3 1_0_0_0 1_0_0_1 7.2270 V 2
#End of data_204-TOPOS_SFF-PPT1

data_205-TOPOS_SFG-PPT1
_audit_creation_date                2025-02-23
_audit_creation_method              ToposPro
_chemical_formula_structural        SFG-PPT1
_chemical_formula_sum               'Lr23 O74 Si37'
_citation_special_details
;
Space Group: PMMA->P m m a. File: SFG-PPT1.cif. 
;
_cell_length_a                      25.532
_cell_length_b                      12.575
_cell_length_c                      13.066
_cell_angle_alpha                   90
_cell_angle_beta                    90
_cell_angle_gamma                   90
_cell_volume                        4195.034
_cell_formula_units_Z               2
_symmetry_space_group_name_H-M      'P m m a'
_symmetry_Int_Tables_number         51
_refine_ls_R_factor_all             0
loop_
_symmetry_equiv_pos_site_id
_symmetry_equiv_pos_as_xyz
1 x,y,z
2 1/2-x,-y,z
3 1/2+x,-y,-z
4 -x,y,-z
5 -x,-y,-z
6 1/2+x,y,-z
7 1/2-x,y,z
8 x,-y,z
loop_
_atom_site_label
_atom_site_type_symbol
_atom_site_symmetry_multiplicity
_atom_site_fract_x
_atom_site_fract_y
_atom_site_fract_z
_atom_site_occupancy
O1 O 8 0.66030 0.10480 0.43090 1.0000
O2 O 8 0.57190 0.19050 0.37040 1.0000
O3 O 8 0.65790 0.30370 0.37070 1.0000
O4 O 8 0.64520 0.14660 0.23670 1.0000
O5 O 8 0.69820 0.20060 0.07510 1.0000
O6 O 8 0.59890 0.14560 0.05700 1.0000
O7 O 8 0.57600 0.18920 0.86550 1.0000
O8 O 8 0.52470 0.17150 0.69210 1.0000
O9 O 8 0.62170 0.10470 0.70270 1.0000
O10 O 8 0.60160 0.30900 0.70820 1.0000
O11 O 8 0.67290 0.34350 0.56740 1.0000
O12 O 8 0.69860 0.34410 0.76300 1.0000
O13 O 4 0.66940 0.00000 0.10100 1.0000
O14 O 4 0.69120 0.00000 0.59230 1.0000
O15 O 4 0.69810 0.00000 0.79130 1.0000
O16 O 4 0.52980 0.00000 0.35310 1.0000
O17 O 4 0.55640 0.00000 0.93860 1.0000
O18 O 4 0.64160 0.50000 0.68680 1.0000
O19 O 4 0.67180 0.50000 0.43410 1.0000
O20 O 2 0.75000 0.00000 0.42770 1.0000
O21 O 4 0.50000 0.12990 0.50000 1.0000
O22 O 4 0.75000 0.36400 0.43520 1.0000
O23 O 4 0.75000 0.31280 0.93600 1.0000
O24 O 4 0.75000 0.10460 0.93130 1.0000
O25 O 4 0.50000 0.16230 0.00000 1.0000
O26 O 2 0.75000 0.50000 0.85100 1.0000
Si1 Si 8 0.63410 0.18690 0.35140 1.0000
Si2 Si 8 0.65290 0.12260 0.11670 1.0000
Si3 Si 8 0.58110 0.19330 0.74270 1.0000
Si4 Si 8 0.65400 0.37470 0.68100 1.0000
Si5 Si 8 0.51890 0.12220 0.38300 1.0000
Si6 Si 8 0.68800 0.37770 0.45240 1.0000
Si7 Si 8 0.55770 0.12470 0.96590 1.0000
Si8 Si 4 0.69060 0.00000 0.46910 1.0000
Si9 Si 4 0.65770 0.00000 0.69670 1.0000
Si10 Si 2 0.75000 0.00000 0.86080 1.0000
Si11 Si 4 0.75000 0.20690 0.00520 1.0000
Si12 Si 4 0.75000 0.37440 0.82800 1.0000
Lr1 Lr 8 0.61319 0.17212 0.54916 1.0000
Lr2 Lr 8 0.66917 0.17458 0.86212 1.0000
Lr3 Lr 4 0.64911 0.00000 0.92185 1.0000
Lr4 Lr 4 0.53446 0.00000 0.21351 1.0000
Lr5 Lr 4 0.42213 0.00000 0.46460 1.0000
Lr6 Lr 2 0.75000 0.00000 0.20629 1.0000
Lr7 Lr 4 0.75000 0.18977 0.63204 1.0000
Lr8 Lr 4 0.75000 0.17570 0.30938 1.0000
Lr9 Lr 2 0.75000 0.50000 0.61896 1.0000
Lr10 Lr 2 0.75000 0.50000 0.20927 1.0000
Lr11 Lr 2 0.50000 0.50000 0.00000 1.0000
Lr12 Lr 2 0.50000 0.50000 0.50000 1.0000
loop_
_topos_bond_atom_site_label_1
_topos_bond_atom_site_label_2
_topos_bond_site_symmetry_1
_topos_bond_site_symmetry_2
_topos_bond_distance
_topos_bond_type
_topos_bond_multiplicity
O1 Si8 1_0_0_0 1_0_0_0 1.6080 V 8
O1 Si1 1_0_0_0 1_0_0_0 1.6100 V 8
O2 Si1 1_0_0_0 1_0_0_0 1.6080 V 8
O2 Si5 1_0_0_0 1_0_0_0 1.6110 V 8
O3 Si1 1_0_0_0 1_0_0_0 1.6090 V 8
O3 Si6 1_0_0_0 1_0_0_0 1.6110 V 8
O4 Si1 1_0_0_0 1_0_0_0 1.6070 V 8
O4 Si2 1_0_0_0 1_0_0_0 1.6090 V 8
O5 Si11 1_0_0_0 1_0_0_0 1.6090 V 8
O5 Si2 1_0_0_0 1_0_0_0 1.6110 V 8
O6 Si2 1_0_0_0 1_0_0_0 1.6100 V 8
O6 Si7 1_0_0_0 1_0_0_-1 1.6100 V 8
O7 Si3 1_0_0_0 1_0_0_0 1.6110 V 8
O7 Si7 1_0_0_0 1_0_0_0 1.6120 V 8
O8 Si3 1_0_0_0 1_0_0_0 1.6080 V 8
O8 Si5 1_0_0_0 4_1_0_1 1.6080 V 8
O9 Si9 1_0_0_0 1_0_0_0 1.6080 V 8
O9 Si3 1_0_0_0 1_0_0_0 1.6090 V 8
O10 Si3 1_0_0_0 1_0_0_0 1.6110 V 8
O10 Si4 1_0_0_0 1_0_0_0 1.6120 V 8
O11 Si4 1_0_0_0 1_0_0_0 1.6090 V 8
O11 Si6 1_0_0_0 1_0_0_0 1.6100 V 8
O12 Si12 1_0_0_0 1_0_0_0 1.6090 V 8
O12 Si4 1_0_0_0 1_0_0_0 1.6100 V 8
O13 Si2 1_0_0_0 1_0_0_0 1.6110 V 8
O14 Si8 1_0_0_0 1_0_0_0 1.6100 V 4
O14 Si9 1_0_0_0 1_0_0_0 1.6100 V 4
O15 Si10 1_0_0_0 1_0_0_0 1.6060 V 4
O15 Si9 1_0_0_0 1_0_0_0 1.6100 V 4
O16 Si5 1_0_0_0 1_0_0_0 1.6100 V 8
O17 Si7 1_0_0_0 1_0_0_0 1.6090 V 8
O18 Si4 1_0_0_0 1_0_0_0 1.6090 V 8
O19 Si6 1_0_0_0 1_0_0_0 1.6100 V 8
O20 Si8 1_0_0_0 1_0_0_0 1.6100 V 4
O21 Si5 1_0_0_0 1_0_0_0 1.6060 V 8
O22 Si6 1_0_0_0 1_0_0_0 1.6080 V 8
O23 Si12 1_0_0_0 1_0_0_0 1.6100 V 4
O23 Si11 1_0_0_0 1_0_0_1 1.6100 V 4
O24 Si10 1_0_0_0 1_0_0_0 1.6060 V 4
O24 Si11 1_0_0_0 1_0_0_1 1.6080 V 4
O25 Si7 1_0_0_0 1_0_0_-1 1.6100 V 8
O26 Si12 1_0_0_0 1_0_0_0 1.6080 V 4
Lr1 Lr5 1_0_0_0 4_1_0_1 2.3520 V 8
Lr2 Lr3 1_0_0_0 1_0_0_0 2.3860 V 8
Lr6 Lr8 1_0_0_0 1_0_0_0 2.5880 V 4
Lr8 Lr10 1_0_0_0 1_0_0_0 4.2830 V 4
Lr10 Lr11 1_0_0_0 1_0_0_0 6.9440 V 4
Lr11 Lr12 1_0_0_0 1_0_0_0 6.5330 V 4
#End of data_205-TOPOS_SFG-PPT1

data_206-TOPOS_SFH-PPT1
_audit_creation_date                2025-02-23
_audit_creation_method              ToposPro
_chemical_formula_structural        SFH-PPT1
_chemical_formula_sum               'Lr9 O32 Si16'
_citation_special_details
;
Space Group: CMCM->C m c m. File: SFH-PPT1.cif. 
;
_cell_length_a                      5.255
_cell_length_b                      34.319
_cell_length_c                      21.518
_cell_angle_alpha                   90
_cell_angle_beta                    90
_cell_angle_gamma                   90
_cell_volume                        3880.693
_cell_formula_units_Z               4
_symmetry_space_group_name_H-M      'C m c m'
_symmetry_Int_Tables_number         63
_refine_ls_R_factor_all             0
loop_
_symmetry_equiv_pos_site_id
_symmetry_equiv_pos_as_xyz
1 x,y,z
2 -x,-y,1/2+z
3 x,-y,-z
4 -x,y,1/2-z
5 -x,-y,-z
6 x,y,1/2-z
7 -x,y,z
8 x,-y,1/2+z
9 1/2+x,1/2+y,z
10 1/2-x,1/2-y,1/2+z
11 1/2+x,1/2-y,-z
12 1/2-x,1/2+y,1/2-z
13 1/2-x,1/2-y,-z
14 1/2+x,1/2+y,1/2-z
15 1/2-x,1/2+y,z
16 1/2+x,1/2-y,1/2+z
loop_
_atom_site_label
_atom_site_type_symbol
_atom_site_symmetry_multiplicity
_atom_site_fract_x
_atom_site_fract_y
_atom_site_fract_z
_atom_site_occupancy
O1 O 16 0.24990 0.08900 0.03360 1.0000
O2 O 16 0.25000 0.20550 0.96510 1.0000
O3 O 16 0.24990 0.35570 0.15810 1.0000
O4 O 16 0.24990 0.01650 0.64410 1.0000
O5 O 8 0.00000 0.05090 0.94680 1.0000
O6 O 8 0.00000 0.02540 0.06230 1.0000
O7 O 8 0.00000 0.42060 0.17770 1.0000
O8 O 8 0.00000 0.38920 0.06630 1.0000
O9 O 8 0.50000 0.23030 0.06300 1.0000
O10 O 8 0.50000 0.15530 0.03360 1.0000
O11 O 8 0.50000 0.29060 0.13950 1.0000
O12 O 4 0.50000 0.32220 0.25000 1.0000
O13 O 4 0.00000 0.48210 0.25000 1.0000
Si1 Si 8 0.00000 0.06350 0.01890 1.0000
Si2 Si 8 0.00000 0.38020 0.13970 1.0000
Si3 Si 8 0.00000 0.01480 0.60100 1.0000
Si4 Si 8 0.00000 0.38890 0.99160 1.0000
Si5 Si 8 0.00000 0.46750 0.17880 1.0000
Si6 Si 8 0.50000 0.19910 0.00700 1.0000
Si7 Si 8 0.50000 0.27710 0.06780 1.0000
Si8 Si 8 0.50000 0.33130 0.17670 1.0000
Lr1 Lr 8 0.00000 0.08598 0.90233 1.0000
Lr2 Lr 8 0.50000 0.35388 0.05269 1.0000
Lr3 Lr 4 0.50000 0.10928 0.25000 1.0000
Lr4 Lr 4 0.50000 0.41865 0.25000 1.0000
Lr5 Lr 4 0.00000 0.37757 0.25000 1.0000
Lr6 Lr 4 0.50000 0.00000 0.00000 1.0000
Lr7 Lr 4 0.50000 0.30539 0.75000 1.0000
loop_
_topos_bond_atom_site_label_1
_topos_bond_atom_site_label_2
_topos_bond_site_symmetry_1
_topos_bond_site_symmetry_2
_topos_bond_distance
_topos_bond_type
_topos_bond_multiplicity
O1 Si1 1_0_0_0 1_0_0_0 1.6090 V 16
O1 Si4 1_0_0_0 11_0_0_1 1.6110 V 16
O2 Si7 1_0_0_0 11_-1_0_1 1.6070 V 16
O2 Si6 1_0_0_0 1_0_0_1 1.6080 V 16
O3 Si2 1_0_0_0 1_0_0_0 1.6090 V 16
O3 Si8 1_0_0_0 1_0_0_0 1.6090 V 16
O4 Si3 1_0_0_0 1_0_0_0 1.6090 V 16
O4 Si5 1_0_0_0 10_0_0_0 1.6080 V 16
O5 Si3 1_0_0_0 4_0_0_1 1.6100 V 8
O5 Si1 1_0_0_0 1_0_0_1 1.6110 V 8
O6 Si1 1_0_0_0 1_0_0_0 1.6070 V 8
O6 Si3 1_0_0_0 2_0_0_-1 1.6110 V 8
O7 Si2 1_0_0_0 1_0_0_0 1.6100 V 8
O7 Si5 1_0_0_0 1_0_0_0 1.6100 V 8
O8 Si2 1_0_0_0 1_0_0_0 1.6090 V 8
O8 Si4 1_0_0_0 1_0_0_-1 1.6070 V 8
O9 Si7 1_0_0_0 1_0_0_0 1.6090 V 8
O9 Si6 1_0_0_0 1_0_0_0 1.6120 V 8
O10 Si4 1_0_0_0 11_0_0_1 1.6110 V 8
O10 Si6 1_0_0_0 1_0_0_0 1.6080 V 8
O11 Si8 1_0_0_0 1_0_0_0 1.6100 V 8
O11 Si7 1_0_0_0 1_0_0_0 1.6110 V 8
O12 Si8 1_0_0_0 1_0_0_0 1.6080 V 8
O13 Si5 1_0_0_0 1_0_0_0 1.6120 V 8
Lr1 Lr2 1_0_0_0 11_-1_0_1 2.2800 V 8
Lr3 Lr7 1_0_0_0 10_1_0_-1 3.9340 V 8
Lr4 Lr5 1_0_0_0 1_0_0_0 2.9820 V 8
#End of data_206-TOPOS_SFH-PPT1

data_207-TOPOS_SFN-PPT1
_audit_creation_date                2025-02-23
_audit_creation_method              ToposPro
_chemical_formula_structural        SFN-PPT1
_chemical_formula_sum               'Lr9 O32 Si16'
_citation_special_details
;
Space Group: C2/M->C 2/m. File: SFN-PPT1.cif. 
;
_cell_length_a                      25.221
_cell_length_b                      5.256
_cell_length_c                      15.022
_cell_angle_alpha                   90
_cell_angle_beta                    103.89
_cell_angle_gamma                   90
_cell_volume                        1933.11
_cell_formula_units_Z               2
_symmetry_space_group_name_H-M      'C 2/m'
_symmetry_Int_Tables_number         12
_refine_ls_R_factor_all             0
loop_
_symmetry_equiv_pos_site_id
_symmetry_equiv_pos_as_xyz
1 x,y,z
2 -x,y,-z
3 -x,-y,-z
4 x,-y,z
5 1/2+x,1/2+y,z
6 1/2-x,1/2+y,-z
7 1/2-x,1/2-y,-z
8 1/2+x,1/2-y,z
loop_
_atom_site_label
_atom_site_type_symbol
_atom_site_symmetry_multiplicity
_atom_site_fract_x
_atom_site_fract_y
_atom_site_fract_z
_atom_site_occupancy
O1 O 8 0.56770 0.24990 0.70490 1.0000
O2 O 8 0.60540 0.75000 0.42330 1.0000
O3 O 8 0.75920 0.25000 0.33200 1.0000
O4 O 8 0.72740 0.74990 0.88350 1.0000
O5 O 4 0.48680 0.50000 0.59780 1.0000
O6 O 4 0.58400 0.50000 0.56230 1.0000
O7 O 4 0.67010 0.00000 0.34140 1.0000
O8 O 4 0.70380 0.00000 0.18890 1.0000
O9 O 4 0.63510 0.00000 0.83570 1.0000
O10 O 4 0.65020 0.00000 0.66800 1.0000
O11 O 4 0.68990 0.00000 0.52150 1.0000
O12 O 4 0.69160 0.00000 0.00880 1.0000
Si1 Si 4 0.55150 0.50000 0.64240 1.0000
Si2 Si 4 0.57700 0.50000 0.45290 1.0000
Si3 Si 4 0.72300 0.00000 0.29930 1.0000
Si4 Si 4 0.60540 0.00000 0.72820 1.0000
Si5 Si 4 0.64280 0.00000 0.42780 1.0000
Si6 Si 4 0.70530 0.00000 0.63190 1.0000
Si7 Si 4 0.69530 0.00000 0.90320 1.0000
Si8 Si 4 0.73480 0.00000 0.10690 1.0000
Lr1 Lr 4 0.64583 0.50000 0.59687 1.0000
Lr2 Lr 4 0.71481 0.50000 0.48119 1.0000
Lr3 Lr 4 0.82159 0.00000 0.24858 1.0000
Lr4 Lr 2 0.50000 0.00000 0.50000 1.0000
Lr5 Lr 2 0.50000 0.50000 0.00000 1.0000
Lr6 Lr 2 0.50000 0.00000 0.00000 1.0000
loop_
_topos_bond_atom_site_label_1
_topos_bond_atom_site_label_2
_topos_bond_site_symmetry_1
_topos_bond_site_symmetry_2
_topos_bond_distance
_topos_bond_type
_topos_bond_multiplicity
O1 Si4 1_0_0_0 1_0_0_0 1.6100 V 8
O1 Si1 1_0_0_0 1_0_0_0 1.6100 V 8
O2 Si2 1_0_0_0 1_0_0_0 1.6090 V 8
O2 Si5 1_0_0_0 1_0_1_0 1.6090 V 8
O3 Si3 1_0_0_0 1_0_0_0 1.6080 V 8
O3 Si6 1_0_0_0 6_1_0_1 1.6090 V 8
O4 Si7 1_0_0_0 1_0_1_0 1.6080 V 8
O4 Si8 1_0_0_0 6_1_0_1 1.6090 V 8
O5 Si1 1_0_0_0 1_0_0_0 1.6080 V 4
O5 Si2 1_0_0_0 2_1_0_1 1.6070 V 4
O6 Si2 1_0_0_0 1_0_0_0 1.6100 V 4
O6 Si1 1_0_0_0 1_0_0_0 1.6100 V 4
O7 Si3 1_0_0_0 1_0_0_0 1.6080 V 4
O7 Si5 1_0_0_0 1_0_0_0 1.6090 V 4
O8 Si8 1_0_0_0 1_0_0_0 1.6100 V 4
O8 Si3 1_0_0_0 1_0_0_0 1.6120 V 4
O9 Si4 1_0_0_0 1_0_0_0 1.6090 V 4
O9 Si7 1_0_0_0 1_0_0_0 1.6110 V 4
O10 Si4 1_0_0_0 1_0_0_0 1.6080 V 4
O10 Si6 1_0_0_0 1_0_0_0 1.6080 V 4
O11 Si5 1_0_0_0 1_0_0_0 1.6090 V 4
O11 Si6 1_0_0_0 1_0_0_0 1.6100 V 4
O12 Si8 1_0_0_0 1_0_0_0 1.6090 V 4
O12 Si7 1_0_0_0 1_0_0_-1 1.6110 V 4
Lr1 Lr2 1_0_0_0 1_0_0_0 2.7380 V 4
Lr1 Lr3 1_0_0_0 6_1_0_1 2.2690 V 4
Lr5 Lr6 1_0_0_0 1_0_0_0 2.6280 V 4
#End of data_207-TOPOS_SFN-PPT1

data_208-TOPOS_SFO-PPT1
_audit_creation_date                2025-02-23
_audit_creation_method              ToposPro
_chemical_formula_structural        SFO-PPT1
_chemical_formula_sum               'Lr1 O8 Si4'
_citation_special_details
;
Space Group: C2/M->C 2/m. File: SFO-PPT1.cif. 
;
_cell_length_a                      22.585
_cell_length_b                      13.568
_cell_length_c                      6.971
_cell_angle_alpha                   90
_cell_angle_beta                    99.016
_cell_angle_gamma                   90
_cell_volume                        2109.753
_cell_formula_units_Z               8
_symmetry_space_group_name_H-M      'C 2/m'
_symmetry_Int_Tables_number         12
_refine_ls_R_factor_all             0
loop_
_symmetry_equiv_pos_site_id
_symmetry_equiv_pos_as_xyz
1 x,y,z
2 -x,y,-z
3 -x,-y,-z
4 x,-y,z
5 1/2+x,1/2+y,z
6 1/2-x,1/2+y,-z
7 1/2-x,1/2-y,-z
8 1/2+x,1/2-y,z
loop_
_atom_site_label
_atom_site_type_symbol
_atom_site_symmetry_multiplicity
_atom_site_fract_x
_atom_site_fract_y
_atom_site_fract_z
_atom_site_occupancy
O1 O 8 0.78410 0.12970 0.08250 1.0000
O2 O 8 0.84100 0.18550 0.42390 1.0000
O3 O 8 0.81450 0.68490 0.14370 1.0000
O4 O 8 0.89750 0.18130 0.12150 1.0000
O5 O 8 0.78100 0.86200 0.70440 1.0000
O6 O 8 0.89870 0.12600 0.76070 1.0000
O7 O 4 0.92820 0.00000 0.04670 1.0000
O8 O 4 0.72080 0.00000 0.85620 1.0000
O9 O 4 0.83440 0.00000 0.52950 1.0000
O10 O 4 0.00000 0.14770 0.00000 1.0000
Si1 Si 8 0.83440 0.20280 0.19310 1.0000
Si2 Si 8 0.93110 0.88640 0.98220 1.0000
Si3 Si 8 0.74280 0.88700 0.87480 1.0000
Si4 Si 8 0.83880 0.11240 0.60460 1.0000
Lr1 Lr 4 0.83718 0.00000 0.05186 1.0000
Lr2 Lr 2 0.00000 0.50000 0.50000 1.0000
Lr3 Lr 2 0.00000 0.00000 0.50000 1.0000
loop_
_topos_bond_atom_site_label_1
_topos_bond_atom_site_label_2
_topos_bond_site_symmetry_1
_topos_bond_site_symmetry_2
_topos_bond_distance
_topos_bond_type
_topos_bond_multiplicity
O1 Si1 1_0_0_0 1_0_0_0 1.6110 V 8
O1 Si3 1_0_0_0 4_0_1_-1 1.6110 V 8
O2 Si1 1_0_0_0 1_0_0_0 1.6100 V 8
O2 Si4 1_0_0_0 1_0_0_0 1.6100 V 8
O3 Si3 1_0_0_0 7_1_1_1 1.6100 V 8
O3 Si1 1_0_0_0 4_0_1_0 1.6100 V 8
O4 Si1 1_0_0_0 1_0_0_0 1.6090 V 8
O4 Si2 1_0_0_0 4_0_1_-1 1.6100 V 8
O5 Si3 1_0_0_0 1_0_0_0 1.6100 V 8
O5 Si4 1_0_0_0 4_0_1_0 1.6100 V 8
O6 Si4 1_0_0_0 1_0_0_0 1.6080 V 8
O6 Si2 1_0_0_0 4_0_1_0 1.6110 V 8
O7 Si2 1_0_0_0 1_0_-1_-1 1.6100 V 8
O8 Si3 1_0_0_0 1_0_-1_0 1.6110 V 8
O9 Si4 1_0_0_0 1_0_0_0 1.6100 V 8
O10 Si2 1_0_0_0 3_1_1_1 1.6090 V 8
Lr2 Lr3 1_0_0_0 1_0_0_0 6.7840 V 4
Lr2 Lr2 1_0_0_0 1_0_0_1 6.9710 V 2
#End of data_208-TOPOS_SFO-PPT1

data_209-TOPOS_SFS-PPT1
_audit_creation_date                2025-02-23
_audit_creation_method              ToposPro
_chemical_formula_structural        SFS-PPT1
_chemical_formula_sum               'Lr15 O56 Si28'
_citation_special_details
;
Space Group: P21/M->P 21/m. File: SFS-PPT1.cif. 
;
_cell_length_a                      14.013
_cell_length_b                      20.027
_cell_length_c                      12.488
_cell_angle_alpha                   90
_cell_angle_beta                    106.08
_cell_angle_gamma                   90
_cell_volume                        3367.497
_cell_formula_units_Z               2
_symmetry_space_group_name_H-M      'P 21/m'
_symmetry_Int_Tables_number         11
_refine_ls_R_factor_all             0
loop_
_symmetry_equiv_pos_site_id
_symmetry_equiv_pos_as_xyz
1 x,y,z
2 -x,1/2+y,-z
3 -x,-y,-z
4 x,1/2-y,z
loop_
_atom_site_label
_atom_site_type_symbol
_atom_site_symmetry_multiplicity
_atom_site_fract_x
_atom_site_fract_y
_atom_site_fract_z
_atom_site_occupancy
O1 O 4 0.47590 0.64110 0.68680 1.0000
O2 O 4 0.35650 0.16790 0.50310 1.0000
O3 O 4 0.32340 0.16140 0.69930 1.0000
O4 O 4 0.17780 0.14400 0.36900 1.0000
O5 O 4 0.30290 0.04530 0.44100 1.0000
O6 O 4 0.33420 0.13160 0.29520 1.0000
O7 O 4 0.15660 0.14260 0.75200 1.0000
O8 O 4 0.32640 0.14610 0.90920 1.0000
O9 O 4 0.28560 0.04420 0.77320 1.0000
O10 O 4 0.49560 0.12170 0.67510 1.0000
O11 O 4 0.32360 0.57550 0.71340 1.0000
O12 O 4 0.48010 0.50900 0.69340 1.0000
O13 O 4 0.36500 0.57270 0.52050 1.0000
O14 O 4 0.39430 0.16890 0.12250 1.0000
O15 O 4 0.34980 0.54480 0.31090 1.0000
O16 O 4 0.41610 0.56180 0.13620 1.0000
O17 O 4 0.51790 0.13010 0.00900 1.0000
O18 O 4 0.10960 0.17150 0.53960 1.0000
O19 O 4 0.97140 0.13010 0.62920 1.0000
O20 O 4 0.98750 0.13020 0.35060 1.0000
O21 O 4 0.15600 0.55210 0.76130 1.0000
O22 O 4 0.32430 0.55350 0.92150 1.0000
O23 O 4 0.18820 0.55930 0.37870 1.0000
O24 O 4 0.98460 0.50040 0.65270 1.0000
O25 O 4 0.10380 0.55100 0.54230 1.0000
O26 O 2 0.44770 0.25000 0.66130 1.0000
O27 O 2 0.41530 0.25000 0.29340 1.0000
O28 O 2 0.44070 0.25000 0.97900 1.0000
O29 O 2 0.05030 0.25000 0.67680 1.0000
O30 O 2 0.06630 0.25000 0.36410 1.0000
O31 O 2 0.50000 0.50000 0.00000 1.0000
Si1 Si 4 0.08410 0.56020 0.40990 1.0000
Si2 Si 4 0.29290 0.12230 0.40240 1.0000
Si3 Si 4 0.27270 0.12360 0.78320 1.0000
Si4 Si 4 0.41170 0.57380 0.65360 1.0000
Si5 Si 4 0.41690 0.17320 0.25580 1.0000
Si6 Si 4 0.44820 0.55470 0.26990 1.0000
Si7 Si 4 0.42030 0.17340 0.00500 1.0000
Si8 Si 4 0.07140 0.17360 0.64990 1.0000
Si9 Si 4 0.08520 0.17380 0.40590 1.0000
Si10 Si 4 0.27260 0.53420 0.79350 1.0000
Si11 Si 4 0.30120 0.53300 0.41200 1.0000
Si12 Si 4 0.43040 0.56150 0.01270 1.0000
Si13 Si 4 0.06390 0.55820 0.65090 1.0000
Si14 Si 4 0.40670 0.17480 0.63530 1.0000
Lr1 Lr 4 0.20509 0.44755 0.57430 1.0000
Lr2 Lr 4 0.16403 0.44717 0.04964 1.0000
Lr3 Lr 4 0.45739 0.05226 0.47706 1.0000
Lr4 Lr 4 0.41697 0.05231 0.82509 1.0000
Lr5 Lr 2 0.67769 0.25000 0.22229 1.0000
Lr6 Lr 2 0.87058 0.25000 0.95845 1.0000
Lr7 Lr 2 0.22578 0.25000 0.57534 1.0000
Lr8 Lr 2 0.30042 0.25000 0.42485 1.0000
Lr9 Lr 2 0.61784 0.25000 0.52475 1.0000
Lr10 Lr 2 0.29278 0.25000 0.76835 1.0000
Lr11 Lr 2 0.19500 0.75000 0.57604 1.0000
loop_
_topos_bond_atom_site_label_1
_topos_bond_atom_site_label_2
_topos_bond_site_symmetry_1
_topos_bond_site_symmetry_2
_topos_bond_distance
_topos_bond_type
_topos_bond_multiplicity
O1 Si4 1_0_0_0 1_0_0_0 1.6100 V 4
O1 Si5 1_0_0_0 2_1_0_1 1.6080 V 4
O2 Si2 1_0_0_0 1_0_0_0 1.6090 V 4
O2 Si14 1_0_0_0 1_0_0_0 1.6110 V 4
O3 Si3 1_0_0_0 1_0_0_0 1.6090 V 4
O3 Si14 1_0_0_0 1_0_0_0 1.6090 V 4
O4 Si9 1_0_0_0 1_0_0_0 1.6070 V 4
O4 Si2 1_0_0_0 1_0_0_0 1.6100 V 4
O5 Si2 1_0_0_0 1_0_0_0 1.6100 V 4
O5 Si11 1_0_0_0 4_0_0_0 1.6080 V 4
O6 Si2 1_0_0_0 1_0_0_0 1.6100 V 4
O6 Si5 1_0_0_0 1_0_0_0 1.6110 V 4
O7 Si3 1_0_0_0 1_0_0_0 1.6100 V 4
O7 Si8 1_0_0_0 1_0_0_0 1.6100 V 4
O8 Si3 1_0_0_0 1_0_0_0 1.6090 V 4
O8 Si7 1_0_0_0 1_0_0_1 1.6090 V 4
O9 Si3 1_0_0_0 1_0_0_0 1.6090 V 4
O9 Si10 1_0_0_0 4_0_0_0 1.6090 V 4
O10 Si14 1_0_0_0 1_0_0_0 1.6080 V 4
O10 Si6 1_0_0_0 2_1_-1_1 1.6100 V 4
O11 Si10 1_0_0_0 1_0_0_0 1.6100 V 4
O11 Si4 1_0_0_0 1_0_0_0 1.6100 V 4
O12 Si4 1_0_0_0 1_0_0_0 1.6080 V 4
O12 Si6 1_0_0_0 3_1_1_1 1.6100 V 4
O13 Si4 1_0_0_0 1_0_0_0 1.6090 V 4
O13 Si11 1_0_0_0 1_0_0_0 1.6110 V 4
O14 Si5 1_0_0_0 1_0_0_0 1.6080 V 4
O14 Si7 1_0_0_0 1_0_0_0 1.6090 V 4
O15 Si11 1_0_0_0 1_0_0_0 1.6090 V 4
O15 Si6 1_0_0_0 1_0_0_0 1.6110 V 4
O16 Si12 1_0_0_0 1_0_0_0 1.6090 V 4
O16 Si6 1_0_0_0 1_0_0_0 1.6110 V 4
O17 Si7 1_0_0_0 1_0_0_0 1.6080 V 4
O17 Si12 1_0_0_0 2_1_-1_0 1.6110 V 4
O18 Si9 1_0_0_0 1_0_0_0 1.6100 V 4
O18 Si8 1_0_0_0 1_0_0_0 1.6110 V 4
O19 Si8 1_0_0_0 1_1_0_0 1.6090 V 4
O19 Si1 1_0_0_0 2_1_-1_1 1.6100 V 4
O20 Si9 1_0_0_0 1_1_0_0 1.6090 V 4
O20 Si13 1_0_0_0 2_1_-1_1 1.6100 V 4
O21 Si13 1_0_0_0 1_0_0_0 1.6110 V 4
O21 Si10 1_0_0_0 1_0_0_0 1.6110 V 4
O22 Si10 1_0_0_0 1_0_0_0 1.6090 V 4
O22 Si12 1_0_0_0 1_0_0_1 1.6110 V 4
O23 Si11 1_0_0_0 1_0_0_0 1.6100 V 4
O23 Si1 1_0_0_0 1_0_0_0 1.6110 V 4
O24 Si13 1_0_0_0 1_1_0_0 1.6090 V 4
O24 Si1 1_0_0_0 3_1_1_1 1.6110 V 4
O25 Si1 1_0_0_0 1_0_0_0 1.6100 V 4
O25 Si13 1_0_0_0 1_0_0_0 1.6100 V 4
O26 Si14 1_0_0_0 1_0_0_0 1.6130 V 4
O27 Si5 1_0_0_0 1_0_0_0 1.6100 V 4
O28 Si7 1_0_0_0 1_0_0_1 1.6100 V 4
O29 Si8 1_0_0_0 1_0_0_0 1.6110 V 4
O30 Si9 1_0_0_0 1_0_0_0 1.6110 V 4
O31 Si12 1_0_0_0 1_0_0_0 1.6060 V 4
Lr2 Lr6 1_0_0_0 1_-1_0_-1 5.5860 V 4
Lr2 Lr2 1_0_0_0 3_0_1_0 4.8980 V 2
Lr3 Lr3 1_0_0_0 3_1_0_1 2.3990 V 2
Lr5 Lr11 1_0_0_0 2_1_-1_1 2.6530 V 2
Lr5 Lr6 1_0_0_0 1_0_0_-1 4.8060 V 2
Lr6 Lr9 1_0_0_0 1_0_0_0 5.5900 V 2
Lr7 Lr10 1_0_0_0 1_0_0_0 2.3320 V 2
Lr7 Lr8 1_0_0_0 1_0_0_0 2.3910 V 2
Lr9 Lr11 1_0_0_0 2_1_-1_1 3.2080 V 2
#End of data_209-TOPOS_SFS-PPT1

data_210-TOPOS_SFW-PPT1
_audit_creation_date                2025-02-23
_audit_creation_method              ToposPro
_chemical_formula_structural        SFW-PPT1
_chemical_formula_sum               'Lr1 O12 Si6'
_citation_special_details
;
Space Group: R-3M->R -3 m. File: SFW-PPT1.cif. 
;
_cell_length_a                      13.6806
_cell_length_b                      13.6806
_cell_length_c                      44.1601
_cell_angle_alpha                   90
_cell_angle_beta                    90
_cell_angle_gamma                   120
_cell_volume                        7157.658
_cell_formula_units_Z               18
_symmetry_space_group_name_H-M      'R -3 m'
_symmetry_Int_Tables_number         166
_refine_ls_R_factor_all             0
loop_
_symmetry_equiv_pos_site_id
_symmetry_equiv_pos_as_xyz
1 x,y,z
2 -y,x-y,z
3 -x+y,-x,z
4 x-y,-y,-z
5 -x,-x+y,-z
6 y,x,-z
7 -x,-y,-z
8 y,-x+y,-z
9 x-y,x,-z
10 -x+y,y,z
11 x,x-y,z
12 -y,-x,z
13 2/3+x,1/3+y,1/3+z
14 1/3+x,2/3+y,2/3+z
15 2/3-y,1/3+x-y,1/3+z
16 1/3-y,2/3+x-y,2/3+z
17 2/3-x+y,1/3-x,1/3+z
18 1/3-x+y,2/3-x,2/3+z
19 2/3+x-y,1/3-y,1/3-z
20 1/3+x-y,2/3-y,2/3-z
21 2/3-x,1/3-x+y,1/3-z
22 1/3-x,2/3-x+y,2/3-z
23 2/3+y,1/3+x,1/3-z
24 1/3+y,2/3+x,2/3-z
25 2/3-x,1/3-y,1/3-z
26 1/3-x,2/3-y,2/3-z
27 2/3+y,1/3-x+y,1/3-z
28 1/3+y,2/3-x+y,2/3-z
29 2/3+x-y,1/3+x,1/3-z
30 1/3+x-y,2/3+x,2/3-z
31 2/3-x+y,1/3+y,1/3+z
32 1/3-x+y,2/3+y,2/3+z
33 2/3+x,1/3+x-y,1/3+z
34 1/3+x,2/3+x-y,2/3+z
35 2/3-y,1/3-x,1/3+z
36 1/3-y,2/3-x,2/3+z
loop_
_atom_site_label
_atom_site_type_symbol
_atom_site_symmetry_multiplicity
_atom_site_fract_x
_atom_site_fract_y
_atom_site_fract_z
_atom_site_occupancy
O1 O 36 0.00003 0.25545 0.22211 1.0000
O2 O 36 0.97422 0.30796 0.27755 1.0000
O3 O 18 0.12110 0.24220 0.26651 1.0000
O4 O 18 0.12008 0.24016 0.17774 1.0000
O5 O 18 0.12095 0.24190 0.04398 1.0000
O6 O 18 0.90374 0.09626 0.26333 1.0000
O7 O 18 0.90191 0.09809 0.18042 1.0000
O8 O 18 0.90353 0.09647 0.04064 1.0000
O9 O 18 0.97795 0.31128 0.16667 1.0000
O10 O 18 0.00000 0.25796 0.00000 1.0000
Si1 Si 36 0.99969 0.22528 0.25735 1.0000
Si2 Si 36 0.99972 0.22597 0.18682 1.0000
Si3 Si 36 0.99965 0.22571 0.03506 1.0000
Lr1 Lr 6 0.66667 0.33333 0.22224 1.0000
Lr2 Lr 3 0.00000 0.00000 0.50000 1.0000
Lr3 Lr 6 0.00000 0.00000 0.22208 1.0000
Lr4 Lr 3 0.00000 0.00000 0.00000 1.0000
loop_
_topos_bond_atom_site_label_1
_topos_bond_atom_site_label_2
_topos_bond_site_symmetry_1
_topos_bond_site_symmetry_2
_topos_bond_distance
_topos_bond_type
_topos_bond_multiplicity
O1 Si2 1_0_0_0 1_-1_0_0 1.6090 V 36
O1 Si1 1_0_0_0 1_-1_0_0 1.6090 V 36
O2 Si1 1_0_0_0 1_0_0_0 1.6100 V 36
O2 Si3 1_0_0_0 23_0_-1_0 1.6100 V 36
O3 Si1 1_0_0_0 1_-1_0_0 1.6100 V 36
O4 Si2 1_0_0_0 1_-1_0_0 1.6090 V 36
O5 Si3 1_0_0_0 1_-1_0_0 1.6090 V 36
O6 Si1 1_0_0_0 1_0_0_0 1.6100 V 36
O7 Si2 1_0_0_0 1_0_0_0 1.6090 V 36
O8 Si3 1_0_0_0 1_0_0_0 1.6100 V 36
O9 Si2 1_0_0_0 1_0_0_0 1.6100 V 36
O10 Si3 1_0_0_0 1_-1_0_0 1.6090 V 36
Lr1 Lr2 1_0_0_0 14_0_0_-1 8.2710 V 18
Lr2 Lr2 1_0_0_0 13_0_0_0 16.7050 V 9
#End of data_210-TOPOS_SFW-PPT1

data_211-TOPOS_SGT-PPT1
_audit_creation_date                2025-02-23
_audit_creation_method              ToposPro
_chemical_formula_structural        SGT-PPT1
_chemical_formula_sum               'Lr3 O32 Si16'
_citation_special_details
;
Space Group: I41/AMD->I 41/a m d. File: SGT-PPT1.cif. 
;
_cell_length_a                      10.329
_cell_length_b                      10.329
_cell_length_c                      34.364
_cell_angle_alpha                   90
_cell_angle_beta                    90
_cell_angle_gamma                   90
_cell_volume                        3666.235
_cell_formula_units_Z               4
_symmetry_space_group_name_H-M      'I 41/a m d'
_symmetry_Int_Tables_number         141
_refine_ls_R_factor_all             0
loop_
_symmetry_equiv_pos_site_id
_symmetry_equiv_pos_as_xyz
1 x,y,z
2 -x,-y,z
3 x,1/2-y,1/4-z
4 -x,1/2+y,1/4-z
5 -y,-x,-z
6 y,x,-z
7 y,1/2-x,1/4+z
8 -y,1/2+x,1/4+z
9 -x,1/2-y,1/4-z
10 x,1/2+y,1/4-z
11 -x,y,z
12 x,-y,z
13 y,1/2+x,1/4+z
14 -y,1/2-x,1/4+z
15 -y,x,-z
16 y,-x,-z
17 1/2+x,1/2+y,1/2+z
18 1/2-x,1/2-y,1/2+z
19 1/2+x,-y,3/4-z
20 1/2-x,y,3/4-z
21 1/2-y,1/2-x,1/2-z
22 1/2+y,1/2+x,1/2-z
23 1/2+y,-x,3/4+z
24 1/2-y,x,3/4+z
25 1/2-x,-y,3/4-z
26 1/2+x,y,3/4-z
27 1/2-x,1/2+y,1/2+z
28 1/2+x,1/2-y,1/2+z
29 1/2+y,x,3/4+z
30 1/2-y,-x,3/4+z
31 1/2-y,1/2+x,1/2-z
32 1/2+y,1/2-x,1/2-z
loop_
_atom_site_label
_atom_site_type_symbol
_atom_site_symmetry_multiplicity
_atom_site_fract_x
_atom_site_fract_y
_atom_site_fract_z
_atom_site_occupancy
O1 O 32 0.71920 0.37260 0.33790 1.0000
O2 O 32 0.69190 0.12700 0.11570 1.0000
O3 O 16 0.66730 0.50000 0.27360 1.0000
O4 O 16 0.73080 0.50000 0.19940 1.0000
O5 O 16 0.87260 0.37260 0.25000 1.0000
O6 O 8 0.50000 0.50000 0.33150 1.0000
O7 O 8 0.50000 0.50000 0.16740 1.0000
Si1 Si 16 0.78600 0.50000 0.24320 1.0000
Si2 Si 16 0.65120 0.50000 0.32030 1.0000
Si3 Si 16 0.65310 0.50000 0.15880 1.0000
Si4 Si 16 0.78240 0.25000 0.12500 1.0000
Lr1 Lr 8 0.00000 0.50000 0.16554 1.0000
Lr2 Lr 4 0.50000 0.00000 0.25000 1.0000
loop_
_topos_bond_atom_site_label_1
_topos_bond_atom_site_label_2
_topos_bond_site_symmetry_1
_topos_bond_site_symmetry_2
_topos_bond_distance
_topos_bond_type
_topos_bond_multiplicity
O1 Si2 1_0_0_0 1_0_0_0 1.6100 V 32
O1 Si4 1_0_0_0 8_1_-1_0 1.6110 V 32
O2 Si4 1_0_0_0 1_0_0_0 1.6090 V 32
O2 Si3 1_0_0_0 3_0_0_0 1.6090 V 32
O3 Si1 1_0_0_0 1_0_0_0 1.6110 V 16
O3 Si2 1_0_0_0 1_0_0_0 1.6130 V 16
O4 Si1 1_0_0_0 1_0_0_0 1.6100 V 16
O4 Si3 1_0_0_0 1_0_0_0 1.6100 V 16
O5 Si1 1_0_0_0 1_0_0_0 1.6080 V 32
O6 Si2 1_0_0_0 1_0_0_0 1.6080 V 16
O7 Si3 1_0_0_0 1_0_0_0 1.6090 V 16
#End of data_211-TOPOS_SGT-PPT1

data_212-TOPOS_SIV-PPT1
_audit_creation_date                2025-02-23
_audit_creation_method              ToposPro
_chemical_formula_structural        SIV-PPT1
_chemical_formula_sum               'Lr1 O8 Si4'
_citation_special_details
;
Space Group: CMCM->C m c m. File: SIV-PPT1.cif. 
;
_cell_length_a                      9.877
_cell_length_b                      14.075
_cell_length_c                      28.131
_cell_angle_alpha                   90
_cell_angle_beta                    90
_cell_angle_gamma                   90
_cell_volume                        3910.737
_cell_formula_units_Z               16
_symmetry_space_group_name_H-M      'C m c m'
_symmetry_Int_Tables_number         63
_refine_ls_R_factor_all             0
loop_
_symmetry_equiv_pos_site_id
_symmetry_equiv_pos_as_xyz
1 x,y,z
2 -x,-y,1/2+z
3 x,-y,-z
4 -x,y,1/2-z
5 -x,-y,-z
6 x,y,1/2-z
7 -x,y,z
8 x,-y,1/2+z
9 1/2+x,1/2+y,z
10 1/2-x,1/2-y,1/2+z
11 1/2+x,1/2-y,-z
12 1/2-x,1/2+y,1/2-z
13 1/2-x,1/2-y,-z
14 1/2+x,1/2+y,1/2-z
15 1/2-x,1/2+y,z
16 1/2+x,1/2-y,1/2+z
loop_
_atom_site_label
_atom_site_type_symbol
_atom_site_symmetry_multiplicity
_atom_site_fract_x
_atom_site_fract_y
_atom_site_fract_z
_atom_site_occupancy
O1 O 16 0.17800 0.07260 0.41440 1.0000
O2 O 16 0.19820 0.24140 0.37520 1.0000
O3 O 16 0.24920 0.08870 0.32460 1.0000
O4 O 16 0.67980 0.90980 0.33560 1.0000
O5 O 16 0.75020 0.89410 0.42540 1.0000
O6 O 8 0.00000 0.12710 0.35030 1.0000
O7 O 8 0.00000 0.94660 0.44410 1.0000
O8 O 8 0.69370 0.98370 0.25000 1.0000
O9 O 8 0.50000 0.03650 0.30840 1.0000
O10 O 8 0.50000 0.85670 0.39940 1.0000
O11 O 8 0.80030 0.00000 0.50000 1.0000
Si1 Si 16 0.15640 0.13230 0.36620 1.0000
Si2 Si 16 0.65610 0.00460 0.30470 1.0000
Si3 Si 16 0.84350 0.97840 0.44590 1.0000
Si4 Si 16 0.34340 0.85060 0.38390 1.0000
Lr1 Lr 8 0.00000 0.31448 0.53114 1.0000
Lr2 Lr 4 0.00000 0.24803 0.25000 1.0000
Lr3 Lr 4 0.00000 0.85047 0.25000 1.0000
loop_
_topos_bond_atom_site_label_1
_topos_bond_atom_site_label_2
_topos_bond_site_symmetry_1
_topos_bond_site_symmetry_2
_topos_bond_distance
_topos_bond_type
_topos_bond_multiplicity
O1 Si1 1_0_0_0 1_0_0_0 1.6090 V 16
O1 Si3 1_0_0_0 7_1_-1_0 1.6090 V 16
O2 Si1 1_0_0_0 1_0_0_0 1.6100 V 16
O2 Si4 1_0_0_0 15_0_-1_0 1.6100 V 16
O3 Si1 1_0_0_0 1_0_0_0 1.6080 V 16
O3 Si2 1_0_0_0 7_1_0_0 1.6090 V 16
O4 Si2 1_0_0_0 1_0_1_0 1.6100 V 16
O4 Si4 1_0_0_0 7_1_0_0 1.6100 V 16
O5 Si3 1_0_0_0 1_0_0_0 1.6090 V 16
O5 Si4 1_0_0_0 7_1_0_0 1.6100 V 16
O6 Si1 1_0_0_0 1_0_0_0 1.6100 V 16
O7 Si3 1_0_0_0 1_-1_0_0 1.6100 V 16
O8 Si2 1_0_0_0 1_0_1_0 1.6100 V 16
O9 Si2 1_0_0_0 1_0_0_0 1.6090 V 16
O10 Si4 1_0_0_0 1_0_0_0 1.6090 V 16
O11 Si3 1_0_0_0 1_0_-1_0 1.6100 V 16
Lr1 Lr1 1_0_0_0 3_0_1_1 5.5080 V 4
Lr1 Lr1 1_0_0_0 11_-1_0_1 5.5460 V 8
Lr1 Lr3 1_0_0_0 2_0_1_0 6.5800 V 8
Lr2 Lr3 1_0_0_0 1_0_-1_0 5.5960 V 4
Lr2 Lr3 1_0_0_0 9_-1_-1_0 5.1450 V 8
#End of data_212-TOPOS_SIV-PPT1

data_213-TOPOS_SOD-PPT1
_audit_creation_date                2025-02-23
_audit_creation_method              ToposPro
_chemical_formula_structural        SOD-PPT1
_chemical_formula_sum               'Lr1 O12 Si6'
_citation_special_details
;
Space Group: IM-3M->I m -3 m. File: SOD-PPT1.cif. 
;
_cell_length_a                      8.965
_cell_length_b                      8.965
_cell_length_c                      8.965
_cell_angle_alpha                   90
_cell_angle_beta                    90
_cell_angle_gamma                   90
_cell_volume                        720.5281
_cell_formula_units_Z               2
_symmetry_space_group_name_H-M      'I m -3 m'
_symmetry_Int_Tables_number         229
_refine_ls_R_factor_all             0
loop_
_symmetry_equiv_pos_site_id
_symmetry_equiv_pos_as_xyz
1 x,y,z
2 -x,-y,z
3 x,-y,-z
4 -x,y,-z
5 z,x,y
6 y,z,x
7 -z,-x,y
8 -y,z,-x
9 z,-x,-y
10 -y,-z,x
11 -z,x,-y
12 y,-z,-x
13 -y,-x,-z
14 y,x,-z
15 y,-x,z
16 -y,x,z
17 -x,-z,-y
18 -z,-y,-x
19 x,z,-y
20 -z,y,x
21 x,-z,y
22 z,y,-x
23 -x,z,y
24 z,-y,x
25 -x,-y,-z
26 x,y,-z
27 -x,y,z
28 x,-y,z
29 -z,-x,-y
30 -y,-z,-x
31 z,x,-y
32 y,-z,x
33 -z,x,y
34 y,z,-x
35 z,-x,y
36 -y,z,x
37 y,x,z
38 -y,-x,z
39 -y,x,-z
40 y,-x,-z
41 x,z,y
42 z,y,x
43 -x,-z,y
44 z,-y,-x
45 -x,z,-y
46 -z,-y,x
47 x,-z,-y
48 -z,y,-x
49 1/2+x,1/2+y,1/2+z
50 1/2-x,1/2-y,1/2+z
51 1/2+x,1/2-y,1/2-z
52 1/2-x,1/2+y,1/2-z
53 1/2+z,1/2+x,1/2+y
54 1/2+y,1/2+z,1/2+x
55 1/2-z,1/2-x,1/2+y
56 1/2-y,1/2+z,1/2-x
57 1/2+z,1/2-x,1/2-y
58 1/2-y,1/2-z,1/2+x
59 1/2-z,1/2+x,1/2-y
60 1/2+y,1/2-z,1/2-x
61 1/2-y,1/2-x,1/2-z
62 1/2+y,1/2+x,1/2-z
63 1/2+y,1/2-x,1/2+z
64 1/2-y,1/2+x,1/2+z
65 1/2-x,1/2-z,1/2-y
66 1/2-z,1/2-y,1/2-x
67 1/2+x,1/2+z,1/2-y
68 1/2-z,1/2+y,1/2+x
69 1/2+x,1/2-z,1/2+y
70 1/2+z,1/2+y,1/2-x
71 1/2-x,1/2+z,1/2+y
72 1/2+z,1/2-y,1/2+x
73 1/2-x,1/2-y,1/2-z
74 1/2+x,1/2+y,1/2-z
75 1/2-x,1/2+y,1/2+z
76 1/2+x,1/2-y,1/2+z
77 1/2-z,1/2-x,1/2-y
78 1/2-y,1/2-z,1/2-x
79 1/2+z,1/2+x,1/2-y
80 1/2+y,1/2-z,1/2+x
81 1/2-z,1/2+x,1/2+y
82 1/2+y,1/2+z,1/2-x
83 1/2+z,1/2-x,1/2+y
84 1/2-y,1/2+z,1/2+x
85 1/2+y,1/2+x,1/2+z
86 1/2-y,1/2-x,1/2+z
87 1/2-y,1/2+x,1/2-z
88 1/2+y,1/2-x,1/2-z
89 1/2+x,1/2+z,1/2+y
90 1/2+z,1/2+y,1/2+x
91 1/2-x,1/2-z,1/2+y
92 1/2+z,1/2-y,1/2-x
93 1/2-x,1/2+z,1/2-y
94 1/2-z,1/2-y,1/2+x
95 1/2+x,1/2-z,1/2-y
96 1/2-z,1/2+y,1/2-x
loop_
_atom_site_label
_atom_site_type_symbol
_atom_site_symmetry_multiplicity
_atom_site_fract_x
_atom_site_fract_y
_atom_site_fract_z
_atom_site_occupancy
O1 O 24 0.14670 0.50000 0.85330 1.0000
Si1 Si 12 0.25000 0.50000 0.00000 1.0000
Lr1 Lr 2 0.50000 0.50000 0.50000 1.0000
loop_
_topos_bond_atom_site_label_1
_topos_bond_atom_site_label_2
_topos_bond_site_symmetry_1
_topos_bond_site_symmetry_2
_topos_bond_distance
_topos_bond_type
_topos_bond_multiplicity
O1 Si1 1_0_0_0 18_0_1_1 1.6090 V 48
#End of data_213-TOPOS_SOD-PPT1

data_214-TOPOS_SOF-PPT1
_audit_creation_date                2025-02-23
_audit_creation_method              ToposPro
_chemical_formula_structural        SOF-PPT1
_chemical_formula_sum               'Lr2 O10 Si5'
_citation_special_details
;
Space Group: C2/C->C 2/c. File: SOF-PPT1.cif. 
;
_cell_length_a                      20.332
_cell_length_b                      12.085
_cell_length_c                      10.275
_cell_angle_alpha                   90
_cell_angle_beta                    105.254
_cell_angle_gamma                   90
_cell_volume                        2435.746
_cell_formula_units_Z               8
_symmetry_space_group_name_H-M      'C 2/c'
_symmetry_Int_Tables_number         15
_refine_ls_R_factor_all             0
loop_
_symmetry_equiv_pos_site_id
_symmetry_equiv_pos_as_xyz
1 x,y,z
2 -x,y,1/2-z
3 -x,-y,-z
4 x,-y,1/2+z
5 1/2+x,1/2+y,z
6 1/2-x,1/2+y,1/2-z
7 1/2-x,1/2-y,-z
8 1/2+x,1/2-y,1/2+z
loop_
_atom_site_label
_atom_site_type_symbol
_atom_site_symmetry_multiplicity
_atom_site_fract_x
_atom_site_fract_y
_atom_site_fract_z
_atom_site_occupancy
O1 O 8 0.34890 0.80080 0.88610 1.0000
O2 O 8 0.22620 0.88610 0.80940 1.0000
O3 O 8 0.22690 0.12180 0.67350 1.0000
O4 O 8 0.40450 0.39620 0.81780 1.0000
O5 O 8 0.34950 0.20620 0.71890 1.0000
O6 O 8 0.36680 0.36520 0.55700 1.0000
O7 O 8 0.40310 0.38640 0.33210 1.0000
O8 O 8 0.31130 0.04930 0.53720 1.0000
O9 O 8 0.33210 0.00490 0.79930 1.0000
O10 O 4 0.50000 0.50000 0.50000 1.0000
O11 O 4 0.50000 0.48570 0.25000 1.0000
Si1 Si 8 0.30540 0.09450 0.68110 1.0000
Si2 Si 8 0.30470 0.91170 0.88430 1.0000
Si3 Si 8 0.34840 0.33810 0.69680 1.0000
Si4 Si 8 0.34780 0.33190 0.39980 1.0000
Si5 Si 8 0.45110 0.49430 0.34940 1.0000
Lr1 Lr 8 0.45603 0.00132 0.60338 1.0000
Lr2 Lr 4 0.25000 0.25000 0.50000 1.0000
Lr3 Lr 4 0.25000 0.75000 0.50000 1.0000
loop_
_topos_bond_atom_site_label_1
_topos_bond_atom_site_label_2
_topos_bond_site_symmetry_1
_topos_bond_site_symmetry_2
_topos_bond_distance
_topos_bond_type
_topos_bond_multiplicity
O1 Si2 1_0_0_0 1_0_0_0 1.6110 V 8
O1 Si4 1_0_0_0 4_0_1_0 1.6110 V 8
O2 Si2 1_0_0_0 1_0_0_0 1.6090 V 8
O2 Si3 1_0_0_0 6_0_0_1 1.6090 V 8
O3 Si1 1_0_0_0 1_0_0_0 1.6110 V 8
O3 Si4 1_0_0_0 7_0_0_1 1.6080 V 8
O4 Si3 1_0_0_0 1_0_0_0 1.6100 V 8
O4 Si5 1_0_0_0 4_0_1_0 1.6100 V 8
O5 Si3 1_0_0_0 1_0_0_0 1.6090 V 8
O5 Si1 1_0_0_0 1_0_0_0 1.6110 V 8
O6 Si4 1_0_0_0 1_0_0_0 1.6100 V 8
O6 Si3 1_0_0_0 1_0_0_0 1.6100 V 8
O7 Si5 1_0_0_0 1_0_0_0 1.6100 V 8
O7 Si4 1_0_0_0 1_0_0_0 1.6100 V 8
O8 Si1 1_0_0_0 1_0_0_0 1.6100 V 8
O8 Si2 1_0_0_0 4_0_1_-1 1.6120 V 8
O9 Si1 1_0_0_0 1_0_0_0 1.6110 V 8
O9 Si2 1_0_0_0 1_0_-1_0 1.6120 V 8
O10 Si5 1_0_0_0 1_0_0_0 1.6060 V 8
O11 Si5 1_0_0_0 1_0_0_0 1.6050 V 8
Lr1 Lr3 1_0_0_0 1_0_-1_0 5.0560 V 8
Lr1 Lr1 1_0_0_0 3_1_0_1 3.1160 V 4
Lr1 Lr1 1_0_0_0 2_1_0_1 3.0730 V 4
#End of data_214-TOPOS_SOF-PPT1

data_215-TOPOS_SOR-PPT1
_audit_creation_date                2025-02-23
_audit_creation_method              ToposPro
_chemical_formula_structural        SOR-PPT1
_chemical_formula_sum               'Lr1 O4 Si2'
_citation_special_details
;
Space Group: CMMM->C m m m. File: SOR-PPT1.cif. 
;
_cell_length_a                      20.9277
_cell_length_b                      17.7028
_cell_length_c                      7.5877
_cell_angle_alpha                   90
_cell_angle_beta                    90
_cell_angle_gamma                   90
_cell_volume                        2811.083
_cell_formula_units_Z               24
_symmetry_space_group_name_H-M      'C m m m'
_symmetry_Int_Tables_number         65
_refine_ls_R_factor_all             0
loop_
_symmetry_equiv_pos_site_id
_symmetry_equiv_pos_as_xyz
1 x,y,z
2 -x,-y,z
3 x,-y,-z
4 -x,y,-z
5 -x,-y,-z
6 x,y,-z
7 -x,y,z
8 x,-y,z
9 1/2+x,1/2+y,z
10 1/2-x,1/2-y,z
11 1/2+x,1/2-y,-z
12 1/2-x,1/2+y,-z
13 1/2-x,1/2-y,-z
14 1/2+x,1/2+y,-z
15 1/2-x,1/2+y,z
16 1/2+x,1/2-y,z
loop_
_atom_site_label
_atom_site_type_symbol
_atom_site_symmetry_multiplicity
_atom_site_fract_x
_atom_site_fract_y
_atom_site_fract_z
_atom_site_occupancy
O1 O 16 0.19481 0.11014 0.28764 1.0000
O2 O 16 0.30953 0.14146 0.17291 1.0000
O3 O 16 0.07938 0.14072 0.17346 1.0000
O4 O 8 0.12365 0.25877 0.00000 1.0000
O5 O 8 0.27733 0.00000 0.23747 1.0000
O6 O 8 0.11259 0.00000 0.23628 1.0000
O7 O 8 0.29294 0.09518 0.50000 1.0000
O8 O 8 0.09664 0.09450 0.50000 1.0000
O9 O 4 0.25000 0.25000 0.00000 1.0000
O10 O 4 0.00000 0.22630 0.00000 1.0000
Si1 Si 16 0.26894 0.08644 0.29934 1.0000
Si2 Si 16 0.12072 0.08630 0.29933 1.0000
Si3 Si 8 0.18945 0.30578 0.00000 1.0000
Si4 Si 8 0.07142 0.19218 0.00000 1.0000
Lr1 Lr 8 0.19869 0.21308 0.50000 1.0000
Lr2 Lr 4 0.19483 0.00000 0.50000 1.0000
Lr3 Lr 2 0.50000 0.00000 0.50000 1.0000
Lr4 Lr 4 0.19296 0.00000 0.00000 1.0000
Lr5 Lr 2 0.00000 0.00000 0.50000 1.0000
Lr6 Lr 2 0.50000 0.00000 0.00000 1.0000
Lr7 Lr 2 0.00000 0.00000 0.00000 1.0000
loop_
_topos_bond_atom_site_label_1
_topos_bond_atom_site_label_2
_topos_bond_site_symmetry_1
_topos_bond_site_symmetry_2
_topos_bond_distance
_topos_bond_type
_topos_bond_multiplicity
O1 Si2 1_0_0_0 1_0_0_0 1.6090 V 16
O1 Si1 1_0_0_0 1_0_0_0 1.6100 V 16
O2 Si1 1_0_0_0 1_0_0_0 1.6100 V 16
O2 Si3 1_0_0_0 10_0_0_0 1.6110 V 16
O3 Si2 1_0_0_0 1_0_0_0 1.6090 V 16
O3 Si4 1_0_0_0 1_0_0_0 1.6090 V 16
O4 Si4 1_0_0_0 1_0_0_0 1.6080 V 8
O4 Si3 1_0_0_0 1_0_0_0 1.6090 V 8
O5 Si1 1_0_0_0 1_0_0_0 1.6100 V 16
O6 Si2 1_0_0_0 1_0_0_0 1.6100 V 16
O7 Si1 1_0_0_0 1_0_0_0 1.6110 V 16
O8 Si2 1_0_0_0 1_0_0_0 1.6100 V 16
O9 Si3 1_0_0_0 1_0_0_0 1.6060 V 8
O10 Si4 1_0_0_0 1_0_0_0 1.6120 V 8
Lr1 Lr3 1_0_0_0 9_-1_0_0 6.5640 V 8
Lr1 Lr1 1_0_0_0 10_0_0_0 2.5140 V 4
Lr3 Lr6 1_0_0_0 1_0_0_0 3.7940 V 4
Lr3 Lr5 1_0_0_0 9_0_-1_0 8.8510 V 4
Lr5 Lr7 1_0_0_0 1_0_0_0 3.7940 V 4
#End of data_215-TOPOS_SOR-PPT1

data_216-TOPOS_SOS-PPT1
_audit_creation_date                2025-02-23
_audit_creation_method              ToposPro
_chemical_formula_structural        SOS-PPT1
_chemical_formula_sum               'Lr1 O4 Si2'
_citation_special_details
;
Space Group: PMNA->P m n a. File: SOS-PPT1.cif. 
;
_cell_length_a                      20.437
_cell_length_b                      7.116
_cell_length_c                      9.726
_cell_angle_alpha                   90
_cell_angle_beta                    90
_cell_angle_gamma                   90
_cell_volume                        1414.449
_cell_formula_units_Z               12
_symmetry_space_group_name_H-M      'P m n a'
_symmetry_Int_Tables_number         53
_refine_ls_R_factor_all             0
loop_
_symmetry_equiv_pos_site_id
_symmetry_equiv_pos_as_xyz
1 x,y,z
2 1/2-x,-y,1/2+z
3 x,-y,-z
4 1/2-x,y,1/2-z
5 -x,-y,-z
6 1/2+x,y,1/2-z
7 -x,y,z
8 1/2+x,-y,1/2+z
loop_
_atom_site_label
_atom_site_type_symbol
_atom_site_symmetry_multiplicity
_atom_site_fract_x
_atom_site_fract_y
_atom_site_fract_z
_atom_site_occupancy
O1 O 8 0.12450 0.60370 0.30030 1.0000
O2 O 8 0.17510 0.73580 0.69660 1.0000
O3 O 8 0.09390 0.96390 0.29600 1.0000
O4 O 8 0.07790 0.23280 0.47960 1.0000
O5 O 4 0.20460 0.50000 0.50000 1.0000
O6 O 4 0.17260 0.00000 0.50000 1.0000
O7 O 4 0.25000 0.55500 0.25000 1.0000
O8 O 4 0.00000 0.29010 0.69070 1.0000
Si1 Si 8 0.18840 0.51770 0.66140 1.0000
Si2 Si 8 0.07370 0.24020 0.64520 1.0000
Si3 Si 8 0.13070 0.88110 0.61120 1.0000
Lr1 Lr 4 0.00000 0.57622 0.52224 1.0000
Lr2 Lr 4 0.00000 0.27220 0.41644 1.0000
Lr3 Lr 2 0.00000 0.00000 0.50000 1.0000
Lr4 Lr 2 0.50000 0.00000 0.50000 1.0000
loop_
_topos_bond_atom_site_label_1
_topos_bond_atom_site_label_2
_topos_bond_site_symmetry_1
_topos_bond_site_symmetry_2
_topos_bond_distance
_topos_bond_type
_topos_bond_multiplicity
O1 Si1 1_0_0_0 3_0_1_1 1.6100 V 8
O1 Si2 1_0_0_0 3_0_1_1 1.6100 V 8
O2 Si3 1_0_0_0 1_0_0_0 1.6070 V 8
O2 Si1 1_0_0_0 1_0_0_0 1.6120 V 8
O3 Si3 1_0_0_0 3_0_2_1 1.6110 V 8
O3 Si2 1_0_0_0 3_0_1_1 1.6150 V 8
O4 Si2 1_0_0_0 1_0_0_0 1.6140 V 8
O4 Si3 1_0_0_0 3_0_1_1 1.6130 V 8
O5 Si1 1_0_0_0 1_0_0_0 1.6090 V 8
O6 Si3 1_0_0_0 1_0_-1_0 1.6180 V 8
O7 Si1 1_0_0_0 2_0_1_-1 1.6110 V 8
O8 Si2 1_0_0_0 1_0_0_0 1.6100 V 8
Lr1 Lr1 1_0_0_0 3_0_1_1 1.1680 V 2
Lr1 Lr2 1_0_0_0 3_0_1_1 1.2330 V 4
Lr2 Lr3 1_0_0_0 1_0_0_0 2.1010 V 4
Lr2 Lr4 1_0_0_0 2_0_0_-1 4.4900 V 4
Lr4 Lr4 1_0_0_0 1_0_-1_0 7.1160 V 2
Lr4 Lr4 1_0_0_0 2_1_0_0 11.3170 V 4
#End of data_216-TOPOS_SOS-PPT1

data_217-TOPOS_SOV-PPT1
_audit_creation_date                2025-02-23
_audit_creation_method              ToposPro
_chemical_formula_structural        SOV-PPT1
_chemical_formula_sum               'Lr17 O64 Si32'
_citation_special_details
;
Space Group: CMMM->C m m m. File: SOV-PPT1.cif. 
;
_cell_length_a                      24.6308
_cell_length_b                      26.6513
_cell_length_c                      12.7267
_cell_angle_alpha                   90
_cell_angle_beta                    90
_cell_angle_gamma                   90
_cell_volume                        8354.351
_cell_formula_units_Z               4
_symmetry_space_group_name_H-M      'C m m m'
_symmetry_Int_Tables_number         65
_refine_ls_R_factor_all             0
loop_
_symmetry_equiv_pos_site_id
_symmetry_equiv_pos_as_xyz
1 x,y,z
2 -x,-y,z
3 x,-y,-z
4 -x,y,-z
5 -x,-y,-z
6 x,y,-z
7 -x,y,z
8 x,-y,z
9 1/2+x,1/2+y,z
10 1/2-x,1/2-y,z
11 1/2+x,1/2-y,-z
12 1/2-x,1/2+y,-z
13 1/2-x,1/2-y,-z
14 1/2+x,1/2+y,-z
15 1/2-x,1/2+y,z
16 1/2+x,1/2-y,z
loop_
_atom_site_label
_atom_site_type_symbol
_atom_site_symmetry_multiplicity
_atom_site_fract_x
_atom_site_fract_y
_atom_site_fract_z
_atom_site_occupancy
O1 O 16 0.23728 0.43590 0.15953 1.0000
O2 O 16 0.13637 0.40764 0.19231 1.0000
O3 O 16 0.10165 0.14670 0.31406 1.0000
O4 O 16 0.16036 0.08920 0.19331 1.0000
O5 O 16 0.17585 0.08651 0.39715 1.0000
O6 O 16 0.08647 0.04916 0.31901 1.0000
O7 O 16 0.10144 0.33505 0.31452 1.0000
O8 O 16 0.15133 0.41374 0.39679 1.0000
O9 O 16 0.05327 0.42225 0.31875 1.0000
O10 O 16 0.08065 0.24065 0.36263 1.0000
O11 O 8 0.06331 0.31269 0.50000 1.0000
O12 O 8 0.06361 0.16846 0.50000 1.0000
O13 O 8 0.23765 0.44228 0.50000 1.0000
O14 O 8 0.18381 0.00000 0.12135 1.0000
O15 O 8 0.00000 0.30408 0.33566 1.0000
O16 O 8 0.00000 0.17713 0.33596 1.0000
O17 O 8 0.15731 0.50000 0.13261 1.0000
O18 O 8 0.17042 0.42535 0.00000 1.0000
O19 O 8 0.19680 0.07855 0.00000 1.0000
O20 O 4 0.00000 0.00000 0.37862 1.0000
O21 O 4 0.08604 0.00000 0.50000 1.0000
O22 O 4 0.17615 0.00000 0.50000 1.0000
O23 O 4 0.15145 0.50000 0.50000 1.0000
O24 O 4 0.00000 0.41781 0.50000 1.0000
O25 O 4 0.00000 0.50000 0.38858 1.0000
Si1 Si 16 0.13103 0.09288 0.30610 1.0000
Si2 Si 16 0.20116 0.05820 0.11889 1.0000
Si3 Si 16 0.06141 0.18336 0.37757 1.0000
Si4 Si 16 0.06139 0.29793 0.37746 1.0000
Si5 Si 16 0.11102 0.39470 0.30569 1.0000
Si6 Si 16 0.17535 0.44220 0.12111 1.0000
Si7 Si 8 0.19704 0.05727 0.50000 1.0000
Si8 Si 8 0.17234 0.44273 0.50000 1.0000
Si9 Si 8 0.06523 0.00000 0.38002 1.0000
Si10 Si 8 0.00000 0.43979 0.38201 1.0000
Lr1 Lr 8 0.24664 0.00000 0.31412 1.0000
Lr2 Lr 8 0.11468 0.50000 0.32720 1.0000
Lr3 Lr 4 0.13108 0.00000 0.50000 1.0000
Lr4 Lr 4 0.92112 0.50000 0.50000 1.0000
Lr5 Lr 4 0.00000 0.24064 0.50000 1.0000
Lr6 Lr 4 0.00000 0.08711 0.50000 1.0000
Lr7 Lr 4 0.00000 0.37796 0.50000 1.0000
Lr8 Lr 4 0.26291 0.00000 0.00000 1.0000
Lr9 Lr 2 0.00000 0.00000 0.00000 1.0000
Lr10 Lr 4 0.25000 0.25000 0.00000 1.0000
Lr11 Lr 4 0.00000 0.25987 0.00000 1.0000
Lr12 Lr 4 0.00000 0.08361 0.00000 1.0000
Lr13 Lr 4 0.25000 0.25000 0.50000 1.0000
Lr14 Lr 2 0.00000 0.50000 0.00000 1.0000
Lr15 Lr 8 0.25000 0.25000 0.32585 1.0000
loop_
_topos_bond_atom_site_label_1
_topos_bond_atom_site_label_2
_topos_bond_site_symmetry_1
_topos_bond_site_symmetry_2
_topos_bond_distance
_topos_bond_type
_topos_bond_multiplicity
O1 Si6 1_0_0_0 1_0_0_0 1.6110 V 16
O1 Si2 1_0_0_0 10_0_0_0 1.6100 V 16
O2 Si5 1_0_0_0 1_0_0_0 1.6100 V 16
O2 Si6 1_0_0_0 1_0_0_0 1.6100 V 16
O3 Si3 1_0_0_0 1_0_0_0 1.6090 V 16
O3 Si1 1_0_0_0 1_0_0_0 1.6100 V 16
O4 Si2 1_0_0_0 1_0_0_0 1.6090 V 16
O4 Si1 1_0_0_0 1_0_0_0 1.6100 V 16
O5 Si1 1_0_0_0 1_0_0_0 1.6090 V 16
O5 Si7 1_0_0_0 1_0_0_0 1.6100 V 16
O6 Si1 1_0_0_0 1_0_0_0 1.6090 V 16
O6 Si9 1_0_0_0 1_0_0_0 1.6100 V 16
O7 Si4 1_0_0_0 1_0_0_0 1.6100 V 16
O7 Si5 1_0_0_0 1_0_0_0 1.6110 V 16
O8 Si5 1_0_0_0 1_0_0_0 1.6090 V 16
O8 Si8 1_0_0_0 1_0_0_0 1.6090 V 16
O9 Si10 1_0_0_0 1_0_0_0 1.6090 V 16
O9 Si5 1_0_0_0 1_0_0_0 1.6090 V 16
O10 Si4 1_0_0_0 1_0_0_0 1.6100 V 16
O10 Si3 1_0_0_0 1_0_0_0 1.6100 V 16
O11 Si4 1_0_0_0 1_0_0_0 1.6090 V 16
O12 Si3 1_0_0_0 1_0_0_0 1.6090 V 16
O13 Si8 1_0_0_0 1_0_0_0 1.6090 V 8
O13 Si7 1_0_0_0 10_0_0_0 1.6090 V 8
O14 Si2 1_0_0_0 1_0_0_0 1.6090 V 16
O15 Si4 1_0_0_0 1_0_0_0 1.6110 V 16
O16 Si3 1_0_0_0 1_0_0_0 1.6110 V 16
O17 Si6 1_0_0_0 1_0_0_0 1.6100 V 16
O18 Si6 1_0_0_0 1_0_0_0 1.6100 V 16
O19 Si2 1_0_0_0 1_0_0_0 1.6110 V 16
O20 Si9 1_0_0_0 1_0_0_0 1.6070 V 8
O21 Si9 1_0_0_0 1_0_0_0 1.6110 V 8
O22 Si7 1_0_0_0 1_0_0_0 1.6110 V 8
O23 Si8 1_0_0_0 1_0_0_0 1.6110 V 8
O24 Si10 1_0_0_0 1_0_0_0 1.6120 V 8
O25 Si10 1_0_0_0 1_0_0_0 1.6070 V 8
Lr2 Lr4 1_0_0_0 2_1_1_0 2.3690 V 8
Lr9 Lr12 1_0_0_0 1_0_0_0 2.2280 V 4
Lr10 Lr15 1_0_0_0 1_0_0_0 4.1470 V 8
Lr10 Lr11 1_0_0_0 10_0_0_0 6.1630 V 8
Lr11 Lr14 1_0_0_0 1_0_0_0 6.4000 V 4
Lr11 Lr12 1_0_0_0 1_0_0_0 4.6980 V 4
Lr13 Lr15 1_0_0_0 1_0_0_0 2.2160 V 8
#End of data_217-TOPOS_SOV-PPT1

data_218-TOPOS_SSF-PPT1
_audit_creation_date                2025-02-23
_audit_creation_method              ToposPro
_chemical_formula_structural        SSF-PPT1
_chemical_formula_sum               'Lr31 O108 Si54'
_citation_special_details
;
Space Group: P6/MMM->P 6/m m m. File: SSF-PPT1.cif. 
;
_cell_length_a                      17.21
_cell_length_b                      17.21
_cell_length_c                      12.792
_cell_angle_alpha                   90
_cell_angle_beta                    90
_cell_angle_gamma                   120
_cell_volume                        3281.185
_cell_formula_units_Z               1
_symmetry_space_group_name_H-M      'P 6/m m m'
_symmetry_Int_Tables_number         191
_refine_ls_R_factor_all             0
loop_
_symmetry_equiv_pos_site_id
_symmetry_equiv_pos_as_xyz
1 x,y,z
2 -x,-y,z
3 -y,x-y,z
4 -x+y,-x,z
5 x-y,x,z
6 y,-x+y,z
7 x-y,-y,-z
8 -x,-x+y,-z
9 y,x,-z
10 -y,-x,-z
11 x,x-y,-z
12 -x+y,y,-z
13 -x,-y,-z
14 x,y,-z
15 y,-x+y,-z
16 x-y,x,-z
17 -x+y,-x,-z
18 -y,x-y,-z
19 -x+y,y,z
20 x,x-y,z
21 -y,-x,z
22 y,x,z
23 -x,-x+y,z
24 x-y,-y,z
loop_
_atom_site_label
_atom_site_type_symbol
_atom_site_symmetry_multiplicity
_atom_site_fract_x
_atom_site_fract_y
_atom_site_fract_z
_atom_site_occupancy
O1 O 24 0.40040 0.31210 0.18910 1.0000
O2 O 12 0.51310 0.25655 0.13940 1.0000
O3 O 12 0.46670 0.33860 0.00000 1.0000
O4 O 12 0.57090 0.42910 0.15750 1.0000
O5 O 12 0.08800 0.91200 0.35200 1.0000
O6 O 12 0.25940 0.00000 0.30740 1.0000
O7 O 12 0.23970 0.00000 0.10290 1.0000
O8 O 6 0.20690 0.00000 0.50000 1.0000
O9 O 6 0.08800 0.91200 0.00000 1.0000
Si1 Si 24 0.48800 0.33390 0.12160 1.0000
Si2 Si 12 0.30270 0.00000 0.19580 1.0000
Si3 Si 12 0.18230 0.00000 0.37860 1.0000
Si4 Si 6 0.18600 0.00000 0.00000 1.0000
Lr1 Lr 12 0.28975 0.14488 0.17400 1.0000
Lr2 Lr 3 0.50000 0.50000 0.00000 1.0000
Lr3 Lr 2 0.66667 0.33333 0.00000 1.0000
Lr4 Lr 6 0.35348 0.17674 0.00000 1.0000
Lr5 Lr 1 0.00000 0.00000 0.50000 1.0000
Lr6 Lr 2 0.66667 0.33333 0.50000 1.0000
Lr7 Lr 3 0.50000 0.50000 0.50000 1.0000
Lr8 Lr 2 0.00000 0.00000 0.19147 1.0000
loop_
_topos_bond_atom_site_label_1
_topos_bond_atom_site_label_2
_topos_bond_site_symmetry_1
_topos_bond_site_symmetry_2
_topos_bond_distance
_topos_bond_type
_topos_bond_multiplicity
O1 Si1 1_0_0_0 1_0_0_0 1.6100 V 24
O1 Si2 1_0_0_0 5_0_0_0 1.6090 V 24
O2 Si1 1_0_0_0 1_0_0_0 1.6080 V 24
O3 Si1 1_0_0_0 1_0_0_0 1.6090 V 24
O4 Si1 1_0_0_0 1_0_0_0 1.6100 V 24
O5 Si3 1_0_0_0 1_0_1_0 1.6080 V 24
O6 Si3 1_0_0_0 1_0_0_0 1.6090 V 12
O6 Si2 1_0_0_0 1_0_0_0 1.6100 V 12
O7 Si4 1_0_0_0 1_0_0_0 1.6080 V 12
O7 Si2 1_0_0_0 1_0_0_0 1.6090 V 12
O8 Si3 1_0_0_0 1_0_0_0 1.6100 V 12
O9 Si4 1_0_0_0 1_0_1_0 1.6070 V 12
Lr1 Lr4 1_0_0_0 1_0_0_0 2.4200 V 12
Lr6 Lr7 1_0_0_0 4_1_1_0 4.9680 V 6
#End of data_218-TOPOS_SSF-PPT1

data_219-TOPOS_-SSO-NT
_audit_creation_date                2025-02-23
_audit_creation_method              ToposPro
_chemical_formula_structural        -SSO-NT
_chemical_formula_sum               'Lr10 O41 Si20'
_citation_special_details
;
Space Group: P21/C->P 21/c. File: -SSO-NT.cif. 
;
_cell_length_a                      19.902
_cell_length_b                      10.1561
_cell_length_c                      24.6892
_cell_angle_alpha                   90
_cell_angle_beta                    105.88
_cell_angle_gamma                   90
_cell_volume                        4799.9
_cell_formula_units_Z               4
_symmetry_space_group_name_H-M      'P 21/c'
_symmetry_Int_Tables_number         14
_refine_ls_R_factor_all             0
loop_
_symmetry_equiv_pos_site_id
_symmetry_equiv_pos_as_xyz
1 x,y,z
2 -x,1/2+y,1/2-z
3 -x,-y,-z
4 x,1/2-y,1/2+z
loop_
_atom_site_label
_atom_site_type_symbol
_atom_site_symmetry_multiplicity
_atom_site_fract_x
_atom_site_fract_y
_atom_site_fract_z
_atom_site_occupancy
O1 O 4 0.06557 0.05120 0.16385 1.0000
O2 O 4 0.01070 0.61232 0.43785 1.0000
O3 O 4 0.05219 0.29920 0.13034 1.0000
O4 O 4 0.12594 0.13313 0.08772 1.0000
O5 O 4 0.12749 0.94821 0.01344 1.0000
O6 O 4 0.11553 0.30280 0.48287 1.0000
O7 O 4 0.23476 0.10741 0.04721 1.0000
O8 O 4 0.37174 0.12331 0.08098 1.0000
O9 O 4 0.29938 0.29410 0.00744 1.0000
O10 O 4 0.30985 0.45117 0.47753 1.0000
O11 O 4 0.44088 0.03468 0.18085 1.0000
O12 O 4 0.49384 0.57356 0.39719 1.0000
O13 O 4 0.41734 0.87871 0.09251 1.0000
O14 O 4 0.07615 0.36488 0.23647 1.0000
O15 O 4 0.04719 0.91166 0.33348 1.0000
O16 O 4 0.06129 0.54941 0.15918 1.0000
O17 O 4 0.12573 0.62592 0.08503 1.0000
O18 O 4 0.06787 0.80168 0.13607 1.0000
O19 O 4 0.01075 0.14269 0.43928 1.0000
O20 O 4 0.12666 0.45101 0.00695 1.0000
O21 O 4 0.10221 0.79811 0.47988 1.0000
O22 O 4 0.22777 0.62552 0.03690 1.0000
O23 O 4 0.30669 0.95996 0.47451 1.0000
O24 O 4 0.36397 0.64161 0.07428 1.0000
O25 O 4 0.29675 0.79458 0.99135 1.0000
O26 O 4 0.49481 0.67969 0.07624 1.0000
O27 O 4 0.45689 0.69558 0.17010 1.0000
O28 O 4 0.15947 0.29319 0.33430 1.0000
O29 O 4 0.13644 0.54292 0.31173 1.0000
O30 O 4 0.03624 0.39366 0.32912 1.0000
O31 O 4 0.12473 0.13155 0.40576 1.0000
O32 O 4 0.15573 0.03830 0.31711 1.0000
O33 O 4 0.25485 0.14260 0.39992 1.0000
O34 O 4 0.38893 0.14081 0.45129 1.0000
O35 O 4 0.49625 0.25057 0.02424 1.0000
O36 O 4 0.16511 0.78804 0.34194 1.0000
O37 O 4 0.25177 0.60053 0.39068 1.0000
O38 O 4 0.12958 0.62091 0.41132 1.0000
O39 O 4 0.38655 0.61788 0.43843 1.0000
O40 O 4 0.08818 0.86656 0.24221 1.0000
O41 O 2 0.50000 0.00000 0.50000 1.0000
O42 O 2 0.50000 0.50000 0.50000 1.0000
Si1 Si 4 0.05851 0.14918 0.11129 1.0000
Si2 Si 4 0.15103 0.09647 0.03285 1.0000
Si3 Si 4 0.30388 0.14331 0.02836 1.0000
Si4 Si 4 0.43383 0.02769 0.11439 1.0000
Si5 Si 4 0.03548 0.40615 0.17302 1.0000
Si6 Si 4 0.06078 0.65499 0.11042 1.0000
Si7 Si 4 0.14541 0.60070 0.02680 1.0000
Si8 Si 4 0.29858 0.65065 0.01896 1.0000
Si9 Si 4 0.43355 0.72421 0.10343 1.0000
Si10 Si 4 0.10162 0.39861 0.30261 1.0000
Si11 Si 4 0.17404 0.15162 0.36453 1.0000
Si12 Si 4 0.09451 0.15664 0.45902 1.0000
Si13 Si 4 0.31230 0.11245 0.45857 1.0000
Si14 Si 4 0.47277 0.14206 0.47471 1.0000
Si15 Si 4 0.17085 0.63830 0.36411 1.0000
Si16 Si 4 0.09267 0.64608 0.46080 1.0000
Si17 Si 4 0.31157 0.59403 0.44970 1.0000
Si18 Si 4 0.47032 0.61015 0.45283 1.0000
Si19 Si 4 0.11354 0.90103 0.30829 1.0000
Si20 Si 4 0.04655 0.90367 0.17848 1.0000
Lr1 Lr 4 0.99980 0.65112 0.25003 1.0000
Lr2 Lr 4 0.92931 0.40037 0.10124 1.0000
Lr3 Lr 4 0.93124 0.90029 0.10181 1.0000
Lr4 Lr 4 0.19027 0.11578 0.93562 1.0000
Lr5 Lr 4 0.49979 0.37736 0.25088 1.0000
Lr6 Lr 4 0.41358 0.88674 0.03002 1.0000
Lr7 Lr 4 0.19039 0.61680 0.93453 1.0000
Lr8 Lr 4 0.01524 0.37979 0.03564 1.0000
Lr9 Lr 4 0.01582 0.88160 0.03567 1.0000
Lr10 Lr 4 0.50070 0.13703 0.25266 1.0000
loop_
_topos_bond_atom_site_label_1
_topos_bond_atom_site_label_2
_topos_bond_site_symmetry_1
_topos_bond_site_symmetry_2
_topos_bond_distance
_topos_bond_type
_topos_bond_multiplicity
O1 Si1 1_0_0_0 1_0_0_0 1.6110 V 4
O1 Si20 1_0_0_0 1_0_-1_0 1.6100 V 4
O2 Si16 1_0_0_0 1_0_0_0 1.6110 V 4
O2 Si1 1_0_0_0 2_0_0_0 1.6110 V 4
O3 Si1 1_0_0_0 1_0_0_0 1.6100 V 4
O3 Si5 1_0_0_0 1_0_0_0 1.6100 V 4
O4 Si2 1_0_0_0 1_0_0_0 1.6100 V 4
O4 Si1 1_0_0_0 1_0_0_0 1.6100 V 4
O5 Si16 1_0_0_0 4_0_1_-1 1.6100 V 4
O5 Si2 1_0_0_0 1_0_1_0 1.6100 V 4
O6 Si12 1_0_0_0 1_0_0_0 1.6090 V 4
O6 Si2 1_0_0_0 4_0_0_0 1.6100 V 4
O7 Si2 1_0_0_0 1_0_0_0 1.6100 V 4
O7 Si3 1_0_0_0 1_0_0_0 1.6100 V 4
O8 Si4 1_0_0_0 1_0_0_0 1.6100 V 4
O8 Si3 1_0_0_0 1_0_0_0 1.6100 V 4
O9 Si3 1_0_0_0 1_0_0_0 1.6110 V 4
O9 Si13 1_0_0_0 4_0_0_-1 1.6100 V 4
O10 Si17 1_0_0_0 1_0_0_0 1.6100 V 4
O10 Si3 1_0_0_0 4_0_0_0 1.6100 V 4
O11 Si4 1_0_0_0 1_0_0_0 1.6100 V 4
O12 Si18 1_0_0_0 1_0_0_0 1.6110 V 4
O12 Si4 1_0_0_0 2_1_0_0 1.6110 V 4
O13 Si9 1_0_0_0 1_0_0_0 1.6100 V 4
O13 Si4 1_0_0_0 1_0_1_0 1.6100 V 4
O14 Si10 1_0_0_0 1_0_0_0 1.6090 V 4
O14 Si5 1_0_0_0 1_0_0_0 1.6100 V 4
O15 Si19 1_0_0_0 1_0_0_0 1.6100 V 4
O15 Si5 1_0_0_0 2_0_0_0 1.6100 V 4
O16 Si6 1_0_0_0 1_0_0_0 1.6100 V 4
O16 Si5 1_0_0_0 1_0_0_0 1.6100 V 4
O17 Si7 1_0_0_0 1_0_0_0 1.6110 V 4
O17 Si6 1_0_0_0 1_0_0_0 1.6110 V 4
O18 Si6 1_0_0_0 1_0_0_0 1.6100 V 4
O18 Si20 1_0_0_0 1_0_0_0 1.6100 V 4
O19 Si12 1_0_0_0 1_0_0_0 1.6100 V 4
O19 Si6 1_0_0_0 2_0_-1_0 1.6100 V 4
O20 Si7 1_0_0_0 1_0_0_0 1.6100 V 4
O20 Si12 1_0_0_0 4_0_0_-1 1.6100 V 4
O21 Si16 1_0_0_0 1_0_0_0 1.6100 V 4
O21 Si7 1_0_0_0 4_0_1_0 1.6100 V 4
O22 Si7 1_0_0_0 1_0_0_0 1.6090 V 4
O22 Si8 1_0_0_0 1_0_0_0 1.6090 V 4
O23 Si8 1_0_0_0 4_0_1_0 1.6090 V 4
O23 Si13 1_0_0_0 1_0_1_0 1.6090 V 4
O24 Si9 1_0_0_0 1_0_0_0 1.6110 V 4
O24 Si8 1_0_0_0 1_0_0_0 1.6110 V 4
O25 Si8 1_0_0_0 1_0_0_1 1.6090 V 4
O25 Si17 1_0_0_0 4_0_1_0 1.6090 V 4
O26 Si9 1_0_0_0 1_0_0_0 1.6090 V 4
O26 Si14 1_0_0_0 2_1_0_0 1.6090 V 4
O27 Si9 1_0_0_0 1_0_0_0 1.6100 V 4
O28 Si11 1_0_0_0 1_0_0_0 1.6090 V 4
O28 Si10 1_0_0_0 1_0_0_0 1.6100 V 4
O29 Si10 1_0_0_0 1_0_0_0 1.6100 V 4
O29 Si15 1_0_0_0 1_0_0_0 1.6110 V 4
O30 Si10 1_0_0_0 1_0_0_0 1.6090 V 4
O30 Si20 1_0_0_0 2_0_-1_0 1.6100 V 4
O31 Si11 1_0_0_0 1_0_0_0 1.6090 V 4
O31 Si12 1_0_0_0 1_0_0_0 1.6090 V 4
O32 Si11 1_0_0_0 1_0_0_0 1.6110 V 4
O32 Si19 1_0_0_0 1_0_-1_0 1.6110 V 4
O33 Si11 1_0_0_0 1_0_0_0 1.6090 V 4
O33 Si13 1_0_0_0 1_0_0_0 1.6100 V 4
O34 Si14 1_0_0_0 1_0_0_0 1.6100 V 4
O34 Si13 1_0_0_0 1_0_0_0 1.6100 V 4
O35 Si14 1_0_0_0 4_0_0_-1 1.6090 V 4
O35 Si18 1_0_0_0 2_1_-1_0 1.6100 V 4
O36 Si15 1_0_0_0 1_0_0_0 1.6100 V 4
O36 Si19 1_0_0_0 1_0_0_0 1.6110 V 4
O37 Si15 1_0_0_0 1_0_0_0 1.6100 V 4
O37 Si17 1_0_0_0 1_0_0_0 1.6110 V 4
O38 Si15 1_0_0_0 1_0_0_0 1.6090 V 4
O38 Si16 1_0_0_0 1_0_0_0 1.6090 V 4
O39 Si18 1_0_0_0 1_0_0_0 1.6090 V 4
O39 Si17 1_0_0_0 1_0_0_0 1.6090 V 4
O40 Si19 1_0_0_0 1_0_0_0 1.6090 V 4
O40 Si20 1_0_0_0 1_0_0_0 1.6100 V 4
O41 Si14 1_0_0_0 1_0_0_0 1.6060 V 4
O42 Si18 1_0_0_0 1_0_0_0 1.6060 V 4
Lr2 Lr7 1_0_0_0 3_1_1_1 2.3100 V 4
Lr2 Lr8 1_0_0_0 1_1_0_0 2.6660 V 4
Lr3 Lr4 1_0_0_0 3_1_1_1 2.3460 V 4
Lr3 Lr9 1_0_0_0 1_1_0_0 2.6530 V 4
Lr5 Lr10 1_0_0_0 1_0_0_0 2.4410 V 4
Lr5 Lr10 1_0_0_0 2_1_0_0 2.6390 V 4
Lr8 Lr8 1_0_0_0 3_0_1_0 2.9740 V 2
Lr9 Lr9 1_0_0_0 3_0_2_0 2.9450 V 2
#End of data_219-TOPOS_-SSO-NT

data_220-TOPOS_SSY-PPT1
_audit_creation_date                2025-02-23
_audit_creation_method              ToposPro
_chemical_formula_structural        SSY-PPT1
_chemical_formula_sum               'Lr4 O14 Si7'
_citation_special_details
;
Space Group: PMMN->P m m n. File: SSY-PPT1.cif. 
;
_cell_length_a                      5.258
_cell_length_b                      22.579
_cell_length_c                      13.977
_cell_angle_alpha                   90
_cell_angle_beta                    90
_cell_angle_gamma                   90
_cell_volume                        1659.355
_cell_formula_units_Z               4
_symmetry_space_group_name_H-M      'P m m n'
_symmetry_Int_Tables_number         59
_refine_ls_R_factor_all             0
loop_
_symmetry_equiv_pos_site_id
_symmetry_equiv_pos_as_xyz
1 x,y,z
2 -x,-y,z
3 1/2+x,1/2-y,-z
4 1/2-x,1/2+y,-z
5 1/2-x,1/2-y,-z
6 1/2+x,1/2+y,-z
7 -x,y,z
8 x,-y,z
loop_
_atom_site_label
_atom_site_type_symbol
_atom_site_symmetry_multiplicity
_atom_site_fract_x
_atom_site_fract_y
_atom_site_fract_z
_atom_site_occupancy
O1 O 8 0.75000 0.34250 0.18030 1.0000
O2 O 8 0.74990 0.26170 0.38010 1.0000
O3 O 8 0.25000 0.14380 0.14010 1.0000
O4 O 4 0.50000 0.55810 0.21040 1.0000
O5 O 4 0.50000 0.35850 0.34070 1.0000
O6 O 4 0.50000 0.31640 0.51760 1.0000
O7 O 4 0.50000 0.16610 0.98150 1.0000
O8 O 4 0.75000 0.50000 0.07740 1.0000
O9 O 4 0.00000 0.44170 0.94480 1.0000
O10 O 4 0.00000 0.17700 0.29300 1.0000
O11 O 4 0.00000 0.24480 0.13930 1.0000
Si1 Si 4 0.50000 0.37140 0.22730 1.0000
Si2 Si 4 0.50000 0.29960 0.40570 1.0000
Si3 Si 4 0.50000 0.12800 0.07870 1.0000
Si4 Si 4 0.00000 0.22070 0.38400 1.0000
Si5 Si 4 0.00000 0.17760 0.17780 1.0000
Si6 Si 4 0.00000 0.31580 0.12990 1.0000
Si7 Si 2 0.50000 0.50000 0.14370 1.0000
Si8 Si 2 0.00000 0.50000 0.01110 1.0000
Lr1 Lr 4 0.50000 0.24747 0.23279 1.0000
Lr2 Lr 4 0.50000 0.39660 0.03531 1.0000
Lr3 Lr 4 0.50000 0.27368 0.04563 1.0000
Lr4 Lr 2 0.50000 0.00000 0.56714 1.0000
Lr5 Lr 2 0.00000 0.00000 0.30393 1.0000
loop_
_topos_bond_atom_site_label_1
_topos_bond_atom_site_label_2
_topos_bond_site_symmetry_1
_topos_bond_site_symmetry_2
_topos_bond_distance
_topos_bond_type
_topos_bond_multiplicity
O1 Si1 1_0_0_0 1_0_0_0 1.6080 V 8
O1 Si6 1_0_0_0 1_1_0_0 1.6090 V 8
O2 Si2 1_0_0_0 1_0_0_0 1.6080 V 8
O2 Si4 1_0_0_0 1_1_0_0 1.6090 V 8
O3 Si5 1_0_0_0 1_0_0_0 1.6090 V 8
O3 Si3 1_0_0_0 1_0_0_0 1.6100 V 8
O4 Si7 1_0_0_0 1_0_0_0 1.6090 V 4
O4 Si1 1_0_0_0 2_1_1_0 1.6090 V 4
O5 Si2 1_0_0_0 1_0_0_0 1.6110 V 4
O5 Si1 1_0_0_0 1_0_0_0 1.6120 V 4
O6 Si2 1_0_0_0 1_0_0_0 1.6090 V 4
O6 Si4 1_0_0_0 3_0_0_1 1.6100 V 4
O7 Si3 1_0_0_0 1_0_0_1 1.6080 V 4
O7 Si6 1_0_0_0 3_0_0_1 1.6100 V 4
O8 Si7 1_0_0_0 1_0_0_0 1.6080 V 4
O8 Si8 1_0_0_0 1_1_0_0 1.6080 V 4
O9 Si3 1_0_0_0 3_-1_0_1 1.6080 V 4
O9 Si8 1_0_0_0 1_0_0_1 1.6100 V 4
O10 Si4 1_0_0_0 1_0_0_0 1.6100 V 4
O10 Si5 1_0_0_0 1_0_0_0 1.6100 V 4
O11 Si6 1_0_0_0 1_0_0_0 1.6080 V 4
O11 Si5 1_0_0_0 1_0_0_0 1.6100 V 4
Lr1 Lr3 1_0_0_0 1_0_0_0 2.6820 V 4
Lr2 Lr3 1_0_0_0 1_0_0_0 2.7790 V 4
Lr4 Lr5 1_0_0_0 1_0_0_0 4.5220 V 4
#End of data_220-TOPOS_SSY-PPT1

data_221-TOPOS_STF-PPT1
_audit_creation_date                2025-02-23
_audit_creation_method              ToposPro
_chemical_formula_structural        STF-PPT1
_chemical_formula_sum               'Lr5 O32 Si16'
_citation_special_details
;
Space Group: C2/M->C 2/m. File: STF-PPT1.cif. 
;
_cell_length_a                      14.104
_cell_length_b                      18.205
_cell_length_c                      7.477
_cell_angle_alpha                   90
_cell_angle_beta                    98.989
_cell_angle_gamma                   90
_cell_volume                        1896.241
_cell_formula_units_Z               2
_symmetry_space_group_name_H-M      'C 2/m'
_symmetry_Int_Tables_number         12
_refine_ls_R_factor_all             0
loop_
_symmetry_equiv_pos_site_id
_symmetry_equiv_pos_as_xyz
1 x,y,z
2 -x,y,-z
3 -x,-y,-z
4 x,-y,z
5 1/2+x,1/2+y,z
6 1/2-x,1/2+y,-z
7 1/2-x,1/2-y,-z
8 1/2+x,1/2-y,z
loop_
_atom_site_label
_atom_site_type_symbol
_atom_site_symmetry_multiplicity
_atom_site_fract_x
_atom_site_fract_y
_atom_site_fract_z
_atom_site_occupancy
O1 O 8 0.69230 0.92790 0.33290 1.0000
O2 O 8 0.60900 0.07220 0.89760 1.0000
O3 O 8 0.32550 0.67480 0.37720 1.0000
O4 O 8 0.38920 0.79500 0.24240 1.0000
O5 O 8 0.35090 0.79450 0.57490 1.0000
O6 O 8 0.31320 0.81940 0.90190 1.0000
O7 O 4 0.64600 0.00000 0.61220 1.0000
O8 O 4 0.52890 0.00000 0.30380 1.0000
O9 O 4 0.50000 0.72180 0.50000 1.0000
O10 O 4 0.50000 0.82340 0.00000 1.0000
Si1 Si 8 0.39840 0.84130 0.06270 1.0000
Si2 Si 8 0.39180 0.74660 0.42290 1.0000
Si3 Si 8 0.28640 0.84200 0.69170 1.0000
Si4 Si 4 0.64000 0.00000 0.39540 1.0000
Si5 Si 4 0.58380 0.00000 0.77540 1.0000
Lr1 Lr 4 0.43698 0.00000 0.88756 1.0000
Lr2 Lr 4 0.50000 0.87853 0.50000 1.0000
Lr3 Lr 2 0.50000 0.50000 0.00000 1.0000
loop_
_topos_bond_atom_site_label_1
_topos_bond_atom_site_label_2
_topos_bond_site_symmetry_1
_topos_bond_site_symmetry_2
_topos_bond_distance
_topos_bond_type
_topos_bond_multiplicity
O1 Si3 1_0_0_0 2_1_0_1 1.6080 V 8
O1 Si4 1_0_0_0 1_0_1_0 1.6100 V 8
O2 Si5 1_0_0_0 1_0_0_0 1.6090 V 8
O2 Si1 1_0_0_0 3_1_1_1 1.6090 V 8
O3 Si2 1_0_0_0 1_0_0_0 1.6120 V 8
O3 Si3 1_0_0_0 7_0_1_1 1.6110 V 8
O4 Si2 1_0_0_0 1_0_0_0 1.6070 V 8
O4 Si1 1_0_0_0 1_0_0_0 1.6080 V 8
O5 Si3 1_0_0_0 1_0_0_0 1.6080 V 8
O5 Si2 1_0_0_0 1_0_0_0 1.6090 V 8
O6 Si3 1_0_0_0 1_0_0_0 1.6110 V 8
O6 Si1 1_0_0_0 1_0_0_1 1.6120 V 8
O7 Si4 1_0_0_0 1_0_0_0 1.6100 V 4
O7 Si5 1_0_0_0 1_0_0_0 1.6100 V 4
O8 Si4 1_0_0_0 1_0_0_0 1.6090 V 4
O8 Si5 1_0_0_0 2_1_0_1 1.6070 V 4
O9 Si2 1_0_0_0 1_0_0_0 1.6090 V 8
O10 Si1 1_0_0_0 1_0_0_0 1.6090 V 8
Lr1 Lr1 1_0_0_0 2_1_0_2 2.2480 V 2
Lr3 Lr3 1_0_0_0 1_0_0_1 7.4770 V 2
#End of data_221-TOPOS_STF-PPT1

data_222-TOPOS_STI-PPT1
_audit_creation_date                2025-02-23
_audit_creation_method              ToposPro
_chemical_formula_structural        STI-PPT1
_chemical_formula_sum               'Lr5 O36 Si18'
_citation_special_details
;
Space Group: FMMM->F m m m. File: STI-PPT1.cif. 
;
_cell_length_a                      13.502
_cell_length_b                      17.802
_cell_length_c                      17.942
_cell_angle_alpha                   90
_cell_angle_beta                    90
_cell_angle_gamma                   90
_cell_volume                        4312.586
_cell_formula_units_Z               4
_symmetry_space_group_name_H-M      'F m m m'
_symmetry_Int_Tables_number         69
_refine_ls_R_factor_all             0
loop_
_symmetry_equiv_pos_site_id
_symmetry_equiv_pos_as_xyz
1 x,y,z
2 -x,-y,z
3 x,-y,-z
4 -x,y,-z
5 -x,-y,-z
6 x,y,-z
7 -x,y,z
8 x,-y,z
9 x,1/2+y,1/2+z
10 1/2+x,y,1/2+z
11 1/2+x,1/2+y,z
12 -x,1/2-y,1/2+z
13 1/2-x,-y,1/2+z
14 1/2-x,1/2-y,z
15 x,1/2-y,1/2-z
16 1/2+x,-y,1/2-z
17 1/2+x,1/2-y,-z
18 -x,1/2+y,1/2-z
19 1/2-x,y,1/2-z
20 1/2-x,1/2+y,-z
21 -x,1/2-y,1/2-z
22 1/2-x,-y,1/2-z
23 1/2-x,1/2-y,-z
24 x,1/2+y,1/2-z
25 1/2+x,y,1/2-z
26 1/2+x,1/2+y,-z
27 -x,1/2+y,1/2+z
28 1/2-x,y,1/2+z
29 1/2-x,1/2+y,z
30 x,1/2-y,1/2+z
31 1/2+x,-y,1/2+z
32 1/2+x,1/2-y,z
loop_
_atom_site_label
_atom_site_type_symbol
_atom_site_symmetry_multiplicity
_atom_site_fract_x
_atom_site_fract_y
_atom_site_fract_z
_atom_site_occupancy
O1 O 32 0.13380 0.07380 0.26960 1.0000
O2 O 32 0.18120 0.19780 0.19820 1.0000
O3 O 32 0.14610 0.07380 0.12330 1.0000
O4 O 16 0.00000 0.14490 0.18970 1.0000
O5 O 16 0.31380 0.00000 0.10990 1.0000
O6 O 8 0.18460 0.00000 0.00000 1.0000
O7 O 8 0.00000 0.00000 0.34690 1.0000
Si1 Si 32 0.11520 0.12250 0.19530 1.0000
Si2 Si 16 0.19780 0.00000 0.08900 1.0000
Si3 Si 16 0.11340 0.00000 0.31900 1.0000
Si4 Si 8 0.25000 0.25000 0.25000 1.0000
Lr1 Lr 4 0.00000 0.00000 0.00000 1.0000
Lr2 Lr 8 0.00000 0.19607 0.50000 1.0000
Lr3 Lr 8 0.25000 0.00000 0.25000 1.0000
loop_
_topos_bond_atom_site_label_1
_topos_bond_atom_site_label_2
_topos_bond_site_symmetry_1
_topos_bond_site_symmetry_2
_topos_bond_distance
_topos_bond_type
_topos_bond_multiplicity
O1 Si3 1_0_0_0 1_0_0_0 1.6090 V 32
O1 Si1 1_0_0_0 1_0_0_0 1.6100 V 32
O2 Si4 1_0_0_0 1_0_0_0 1.6090 V 32
O2 Si1 1_0_0_0 1_0_0_0 1.6110 V 32
O3 Si2 1_0_0_0 1_0_0_0 1.6100 V 32
O3 Si1 1_0_0_0 1_0_0_0 1.6110 V 32
O4 Si1 1_0_0_0 1_0_0_0 1.6090 V 32
O5 Si2 1_0_0_0 1_0_0_0 1.6100 V 16
O5 Si3 1_0_0_0 19_0_0_0 1.6100 V 16
O6 Si2 1_0_0_0 1_0_0_0 1.6070 V 16
O7 Si3 1_0_0_0 1_0_0_0 1.6110 V 16
Lr1 Lr2 1_0_0_0 9_0_-1_-1 5.4110 V 8
Lr2 Lr2 1_0_0_0 14_-1_0_0 7.0190 V 8
Lr2 Lr2 1_0_0_0 2_0_0_0 6.9810 V 4
#End of data_222-TOPOS_STI-PPT1

data_223-TOPOS_STT-PPT1
_audit_creation_date                2025-02-23
_audit_creation_method              ToposPro
_chemical_formula_structural        STT-PPT1
_chemical_formula_sum               'Lr3 O32 Si16'
_citation_special_details
;
Space Group: P21/C->P 21/c. File: STT-PPT1.cif. 
;
_cell_length_a                      13.573
_cell_length_b                      21.853
_cell_length_c                      16.5955
_cell_angle_alpha                   90
_cell_angle_beta                    129.9598
_cell_angle_gamma                   90
_cell_volume                        3773
_cell_formula_units_Z               4
_symmetry_space_group_name_H-M      'P 21/c'
_symmetry_Int_Tables_number         14
_refine_ls_R_factor_all             0
loop_
_symmetry_equiv_pos_site_id
_symmetry_equiv_pos_as_xyz
1 x,y,z
2 -x,1/2+y,1/2-z
3 -x,-y,-z
4 x,1/2-y,1/2+z
loop_
_atom_site_label
_atom_site_type_symbol
_atom_site_symmetry_multiplicity
_atom_site_fract_x
_atom_site_fract_y
_atom_site_fract_z
_atom_site_occupancy
O1 O 4 0.39400 0.53460 0.87850 1.0000
O2 O 4 0.72450 0.15880 0.89680 1.0000
O3 O 4 0.39590 0.40220 0.63200 1.0000
O4 O 4 0.80880 0.23800 0.83250 1.0000
O5 O 4 0.94550 0.14120 0.93960 1.0000
O6 O 4 0.41790 0.32910 0.76960 1.0000
O7 O 4 0.35630 0.44410 0.75780 1.0000
O8 O 4 0.55900 0.23290 0.87820 1.0000
O9 O 4 0.03750 0.41770 0.06320 1.0000
O10 O 4 0.52180 0.40190 0.56110 1.0000
O11 O 4 0.19060 0.13190 0.10560 1.0000
O12 O 4 0.58280 0.45770 0.94600 1.0000
O13 O 4 0.21960 0.59020 0.87490 1.0000
O14 O 4 0.73000 0.12920 0.74580 1.0000
O15 O 4 0.79560 0.43340 0.97780 1.0000
O16 O 4 0.01710 0.07180 0.09890 1.0000
O17 O 4 0.50490 0.53580 0.79500 1.0000
O18 O 4 0.49620 0.11800 0.82020 1.0000
O19 O 4 0.66500 0.14530 0.01950 1.0000
O20 O 4 0.85540 0.35190 0.89930 1.0000
O21 O 4 0.06990 0.03840 0.97860 1.0000
O22 O 4 0.17780 0.44880 0.26230 1.0000
O23 O 4 0.15000 0.52460 0.71280 1.0000
O24 O 4 0.71530 0.55810 0.82410 1.0000
O25 O 4 0.24230 0.56020 0.33700 1.0000
O26 O 4 0.62230 0.30560 0.79080 1.0000
O27 O 4 0.64860 0.34350 0.95350 1.0000
O28 O 4 0.52160 0.50060 0.65240 1.0000
O29 O 4 0.31120 0.46750 0.46550 1.0000
O30 O 4 0.93210 0.00130 0.17160 1.0000
O31 O 4 0.71680 0.32900 0.69740 1.0000
O32 O 4 0.87700 0.46930 0.87790 1.0000
Si1 Si 4 0.61190 0.16370 0.90380 1.0000
Si2 Si 4 0.80130 0.16690 0.85370 1.0000
Si3 Si 4 0.25800 0.56990 0.80490 1.0000
Si4 Si 4 0.46020 0.49280 0.84490 1.0000
Si5 Si 4 0.56210 0.30250 0.84840 1.0000
Si6 Si 4 0.75140 0.30630 0.80520 1.0000
Si7 Si 4 0.70210 0.41120 0.00020 1.0000
Si8 Si 4 0.05540 0.09610 0.03060 1.0000
Si9 Si 4 0.56110 0.55270 0.73700 1.0000
Si10 Si 4 0.00740 0.00260 0.12650 1.0000
Si11 Si 4 0.20080 0.49420 0.34950 1.0000
Si12 Si 4 0.34030 0.38590 0.69070 1.0000
Si13 Si 4 0.89130 0.41800 0.95460 1.0000
Si14 Si 4 0.66430 0.38120 0.60960 1.0000
Si15 Si 4 0.15510 0.45970 0.15540 1.0000
Si16 Si 4 0.43770 0.44320 0.57770 1.0000
Lr1 Lr 4 0.10839 0.17263 0.28243 1.0000
Lr2 Lr 4 0.63769 0.43090 0.77849 1.0000
Lr3 Lr 4 0.46732 0.02852 0.92469 1.0000
loop_
_topos_bond_atom_site_label_1
_topos_bond_atom_site_label_2
_topos_bond_site_symmetry_1
_topos_bond_site_symmetry_2
_topos_bond_distance
_topos_bond_type
_topos_bond_multiplicity
O1 Si4 1_0_0_0 1_0_0_0 1.6110 V 4
O1 Si3 1_0_0_0 1_0_0_0 1.6120 V 4
O2 Si2 1_0_0_0 1_0_0_0 1.6080 V 4
O2 Si1 1_0_0_0 1_0_0_0 1.6090 V 4
O3 Si12 1_0_0_0 1_0_0_0 1.6090 V 4
O3 Si16 1_0_0_0 1_0_0_0 1.6100 V 4
O4 Si6 1_0_0_0 1_0_0_0 1.6080 V 4
O4 Si2 1_0_0_0 1_0_0_0 1.6110 V 4
O5 Si2 1_0_0_0 1_0_0_0 1.6110 V 4
O5 Si8 1_0_0_0 1_1_0_1 1.6070 V 4
O6 Si5 1_0_0_0 1_0_0_0 1.6100 V 4
O6 Si12 1_0_0_0 1_0_0_0 1.6100 V 4
O7 Si4 1_0_0_0 1_0_0_0 1.6100 V 4
O7 Si12 1_0_0_0 1_0_0_0 1.6110 V 4
O8 Si5 1_0_0_0 1_0_0_0 1.6080 V 4
O8 Si1 1_0_0_0 1_0_0_0 1.6100 V 4
O9 Si15 1_0_0_0 1_0_0_0 1.6110 V 4
O9 Si13 1_0_0_0 1_-1_0_-1 1.6100 V 4
O10 Si14 1_0_0_0 1_0_0_0 1.6110 V 4
O10 Si16 1_0_0_0 1_0_0_0 1.6120 V 4
O11 Si8 1_0_0_0 1_0_0_0 1.6110 V 4
O11 Si12 1_0_0_0 4_0_0_-1 1.6090 V 4
O12 Si4 1_0_0_0 1_0_0_0 1.6080 V 4
O12 Si7 1_0_0_0 1_0_0_1 1.6100 V 4
O13 Si3 1_0_0_0 1_0_0_0 1.6110 V 4
O13 Si7 1_0_0_0 3_1_1_1 1.6120 V 4
O14 Si2 1_0_0_0 1_0_0_0 1.6110 V 4
O14 Si3 1_0_0_0 2_1_-1_1 1.6090 V 4
O15 Si13 1_0_0_0 1_0_0_0 1.6100 V 4
O15 Si7 1_0_0_0 1_0_0_1 1.6090 V 4
O16 Si10 1_0_0_0 1_0_0_0 1.6100 V 4
O16 Si8 1_0_0_0 1_0_0_0 1.6110 V 4
O17 Si4 1_0_0_0 1_0_0_0 1.6070 V 4
O17 Si9 1_0_0_0 1_0_0_0 1.6090 V 4
O18 Si1 1_0_0_0 1_0_0_0 1.6090 V 4
O18 Si9 1_0_0_0 2_1_-1_1 1.6110 V 4
O19 Si14 1_0_0_0 4_0_0_-1 1.6090 V 4
O19 Si1 1_0_0_0 1_0_0_-1 1.6090 V 4
O20 Si13 1_0_0_0 1_0_0_0 1.6100 V 4
O20 Si6 1_0_0_0 1_0_0_0 1.6100 V 4
O21 Si8 1_0_0_0 1_0_0_1 1.6100 V 4
O21 Si10 1_0_0_0 3_0_0_1 1.6110 V 4
O22 Si11 1_0_0_0 1_0_0_0 1.6110 V 4
O22 Si15 1_0_0_0 1_0_0_0 1.6110 V 4
O23 Si3 1_0_0_0 1_0_0_0 1.6080 V 4
O23 Si10 1_0_0_0 4_0_0_0 1.6090 V 4
O24 Si9 1_0_0_0 1_0_0_0 1.6120 V 4
O24 Si15 1_0_0_0 3_1_1_1 1.6100 V 4
O25 Si11 1_0_0_0 1_0_0_0 1.6100 V 4
O25 Si14 1_0_0_0 3_1_1_1 1.6090 V 4
O26 Si5 1_0_0_0 1_0_0_0 1.6090 V 4
O26 Si6 1_0_0_0 1_0_0_0 1.6090 V 4
O27 Si5 1_0_0_0 1_0_0_0 1.6100 V 4
O27 Si7 1_0_0_0 1_0_0_1 1.6110 V 4
O28 Si9 1_0_0_0 1_0_0_0 1.6090 V 4
O28 Si16 1_0_0_0 1_0_0_0 1.6100 V 4
O29 Si11 1_0_0_0 1_0_0_0 1.6080 V 4
O29 Si16 1_0_0_0 1_0_0_0 1.6100 V 4
O30 Si10 1_0_0_0 1_1_0_0 1.6090 V 4
O30 Si11 1_0_0_0 2_1_-1_0 1.6090 V 4
O31 Si6 1_0_0_0 1_0_0_0 1.6090 V 4
O31 Si14 1_0_0_0 1_0_0_0 1.6120 V 4
O32 Si13 1_0_0_0 1_0_0_0 1.6120 V 4
O32 Si15 1_0_0_0 3_1_1_1 1.6100 V 4
Lr1 Lr1 1_0_0_0 4_0_0_0 8.9600 V 4
Lr1 Lr1 1_0_0_0 4_1_0_0 10.9470 V 4
Lr3 Lr3 1_0_0_0 3_1_0_2 2.3960 V 2
#End of data_223-TOPOS_STT-PPT1

data_224-TOPOS_STW-PPT1
_audit_creation_date                2025-02-23
_audit_creation_method              ToposPro
_chemical_formula_structural        STW-PPT1
_chemical_formula_sum               'Lr1 O10 Si5'
_citation_special_details
;
Space Group: P6122->P 61 2 2. File: STW-PPT1.cif. 
;
_cell_length_a                      11.887
_cell_length_b                      11.887
_cell_length_c                      29.915
_cell_angle_alpha                   90
_cell_angle_beta                    90
_cell_angle_gamma                   120
_cell_volume                        3660.7
_cell_formula_units_Z               12
_symmetry_space_group_name_H-M      'P 61 2 2'
_symmetry_Int_Tables_number         178
_refine_ls_R_factor_all             0
loop_
_symmetry_equiv_pos_site_id
_symmetry_equiv_pos_as_xyz
1 x,y,z
2 -x,-y,1/2+z
3 -y,x-y,1/3+z
4 -x+y,-x,2/3+z
5 x-y,x,1/6+z
6 y,-x+y,5/6+z
7 x-y,-y,-z
8 -x,-x+y,2/3-z
9 y,x,1/3-z
10 -y,-x,5/6-z
11 x,x-y,1/6-z
12 -x+y,y,1/2-z
loop_
_atom_site_label
_atom_site_type_symbol
_atom_site_symmetry_multiplicity
_atom_site_fract_x
_atom_site_fract_y
_atom_site_fract_z
_atom_site_occupancy
O1 O 12 0.33280 0.57260 0.33370 1.0000
O2 O 12 0.12160 0.21290 0.97280 1.0000
O3 O 12 0.89980 0.20810 0.97680 1.0000
O4 O 12 0.37580 0.34460 0.96640 1.0000
O5 O 12 0.77970 0.31690 0.01540 1.0000
O6 O 12 0.77520 0.53100 0.03480 1.0000
O7 O 12 0.23110 0.32460 0.89710 1.0000
O8 O 12 0.59370 0.55940 0.98580 1.0000
O9 O 6 0.91280 0.00000 0.00000 1.0000
O10 O 6 0.93440 0.06560 0.91667 1.0000
O11 O 6 0.58370 0.41630 0.91667 1.0000
O12 O 6 0.64020 0.32010 0.08333 1.0000
Si1 Si 12 0.69170 0.37480 0.03380 1.0000
Si2 Si 12 0.53180 0.41380 0.96670 1.0000
Si3 Si 12 0.29970 0.39420 0.85080 1.0000
Si4 Si 12 0.24320 0.33800 0.95060 1.0000
Si5 Si 12 0.96700 0.12210 0.96660 1.0000
Lr1 Lr 6 0.90510 0.45255 0.08333 1.0000
Lr2 Lr 6 0.40573 0.40573 0.16667 1.0000
loop_
_topos_bond_atom_site_label_1
_topos_bond_atom_site_label_2
_topos_bond_site_symmetry_1
_topos_bond_site_symmetry_2
_topos_bond_distance
_topos_bond_type
_topos_bond_multiplicity
O1 Si1 1_0_0_0 9_0_0_0 1.6100 V 12
O1 Si2 1_0_0_0 9_0_0_1 1.6120 V 12
O2 Si4 1_0_0_0 1_0_0_0 1.6100 V 12
O2 Si5 1_0_0_0 1_-1_0_0 1.6100 V 12
O3 Si5 1_0_0_0 1_0_0_0 1.6100 V 12
O3 Si3 1_0_0_0 5_1_0_0 1.6110 V 12
O4 Si2 1_0_0_0 1_0_0_0 1.6090 V 12
O4 Si4 1_0_0_0 1_0_0_0 1.6090 V 12
O5 Si1 1_0_0_0 1_0_0_0 1.6100 V 12
O5 Si3 1_0_0_0 5_1_0_-1 1.6090 V 12
O6 Si1 1_0_0_0 1_0_0_0 1.6100 V 12
O6 Si4 1_0_0_0 7_1_1_1 1.6120 V 12
O7 Si4 1_0_0_0 1_0_0_0 1.6080 V 12
O7 Si3 1_0_0_0 1_0_0_0 1.6100 V 12
O8 Si2 1_0_0_0 1_0_0_0 1.6090 V 12
O8 Si3 1_0_0_0 10_1_1_1 1.6110 V 12
O9 Si5 1_0_0_0 1_0_0_-1 1.6080 V 12
O10 Si5 1_0_0_0 1_0_0_0 1.6040 V 12
O11 Si2 1_0_0_0 1_0_0_0 1.6140 V 12
O12 Si1 1_0_0_0 1_0_0_0 1.6110 V 12
Lr2 Lr2 1_0_0_0 6_0_0_-1 6.9370 V 6
Lr2 Lr2 1_0_0_0 5_1_0_0 8.6460 V 6
#End of data_224-TOPOS_STW-PPT1

data_225-TOPOS_SVR-PPT1
_audit_creation_date                2025-02-23
_audit_creation_method              ToposPro
_chemical_formula_structural        SVR-PPT1
_chemical_formula_sum               'Lr8 O48 Si23'
_citation_special_details
;
Space Group: CC->C c. File: SVR-PPT1.cif. 
;
_cell_length_a                      20.408
_cell_length_b                      13.304
_cell_length_c                      20.166
_cell_angle_alpha                   90
_cell_angle_beta                    102.333
_cell_angle_gamma                   90
_cell_volume                        5348.878
_cell_formula_units_Z               4
_symmetry_space_group_name_H-M      'C c'
_symmetry_Int_Tables_number         9
_refine_ls_R_factor_all             0
loop_
_symmetry_equiv_pos_site_id
_symmetry_equiv_pos_as_xyz
1 x,y,z
2 x,-y,1/2+z
3 1/2+x,1/2+y,z
4 1/2+x,1/2-y,1/2+z
loop_
_atom_site_label
_atom_site_type_symbol
_atom_site_symmetry_multiplicity
_atom_site_fract_x
_atom_site_fract_y
_atom_site_fract_z
_atom_site_occupancy
O1 O 4 0.12230 0.33440 0.07350 1.0000
O2 O 4 0.10670 0.52960 0.08230 1.0000
O3 O 4 0.00820 0.41870 0.01410 1.0000
O4 O 4 0.11690 0.45010 0.96650 1.0000
O5 O 4 0.25450 0.33160 0.10060 1.0000
O6 O 4 0.18630 0.16300 0.09440 1.0000
O7 O 4 0.18990 0.28920 0.19600 1.0000
O8 O 4 0.38120 0.36520 0.10170 1.0000
O9 O 4 0.28690 0.45770 0.01340 1.0000
O10 O 4 0.30930 0.50630 0.14310 1.0000
O11 O 4 0.42970 0.18070 0.11610 1.0000
O12 O 4 0.50650 0.33333 0.16520 1.0000
O13 O 4 0.40740 0.27870 0.22180 1.0000
O14 O 4 0.30750 0.10910 0.08500 1.0000
O15 O 4 0.39880 0.01480 0.17430 1.0000
O16 O 4 0.40540 0.01350 0.04540 1.0000
O17 O 4 0.20460 0.04570 0.99410 1.0000
O18 O 4 0.22490 0.97610 0.11910 1.0000
O19 O 4 0.63130 0.36370 0.15400 1.0000
O20 O 4 0.60670 0.29100 0.26740 1.0000
O21 O 4 0.58530 0.17910 0.15850 1.0000
O22 O 4 0.75810 0.32530 0.20310 1.0000
O23 O 4 0.70210 0.48580 0.24340 1.0000
O24 O 4 0.83080 0.16230 0.22620 1.0000
O25 O 4 0.88950 0.33970 0.23230 1.0000
O26 O 4 0.82500 0.28690 0.32670 1.0000
O27 O 4 0.70780 0.10870 0.16950 1.0000
O28 O 4 0.78020 0.99620 0.26420 1.0000
O29 O 4 0.61760 0.00090 0.21330 1.0000
O30 O 4 0.92260 0.50160 0.30700 1.0000
O31 O 4 0.00740 0.42270 0.23940 1.0000
O32 O 4 0.88680 0.55240 0.41990 1.0000
O33 O 4 0.88160 0.34950 0.44930 1.0000
O34 O 4 0.75080 0.32550 0.41590 1.0000
O35 O 4 0.82990 0.16790 0.43150 1.0000
O36 O 4 0.62680 0.39210 0.38130 1.0000
O37 O 4 0.72790 0.51230 0.37610 1.0000
O38 O 4 0.59520 0.20050 0.38050 1.0000
O39 O 4 0.50490 0.33280 0.32330 1.0000
O40 O 4 0.70760 0.09690 0.39740 1.0000
O41 O 4 0.59320 0.01460 0.33570 1.0000
O42 O 4 0.80990 0.97780 0.39740 1.0000
O43 O 4 0.38070 0.38100 0.32390 1.0000
O44 O 4 0.41960 0.19220 0.34110 1.0000
O45 O 4 0.25610 0.32670 0.32050 1.0000
O46 O 4 0.18450 0.16260 0.29450 1.0000
O47 O 4 0.12450 0.33990 0.28970 1.0000
O48 O 4 0.30670 0.09210 0.30270 1.0000
Si1 Si 4 0.08830 0.43280 0.03410 1.0000
Si2 Si 4 0.18830 0.27960 0.11620 1.0000
Si3 Si 4 0.30790 0.41580 0.09000 1.0000
Si4 Si 4 0.43110 0.28980 0.15090 1.0000
Si5 Si 4 0.38570 0.07920 0.10530 1.0000
Si6 Si 4 0.23060 0.07320 0.07310 1.0000
Si7 Si 4 0.58230 0.29220 0.18600 1.0000
Si8 Si 4 0.70420 0.41370 0.17980 1.0000
Si9 Si 4 0.82620 0.27840 0.24740 1.0000
Si10 Si 4 0.78240 0.06820 0.20050 1.0000
Si11 Si 4 0.62950 0.07950 0.15640 1.0000
Si12 Si 4 0.92960 0.44460 0.23840 1.0000
Si13 Si 4 0.82180 0.28270 0.40560 1.0000
Si14 Si 4 0.70280 0.42120 0.41700 1.0000
Si15 Si 4 0.58330 0.30380 0.33820 1.0000
Si16 Si 4 0.62830 0.09070 0.39470 1.0000
Si17 Si 4 0.78350 0.07110 0.43520 1.0000
Si18 Si 4 0.42820 0.29570 0.30260 1.0000
Si19 Si 4 0.30670 0.42060 0.32640 1.0000
Si20 Si 4 0.18850 0.27960 0.27520 1.0000
Si21 Si 4 0.23040 0.06300 0.30420 1.0000
Si22 Si 4 0.38390 0.08450 0.34240 1.0000
Si23 Si 4 0.08570 0.44450 0.26950 1.0000
Lr1 Lr 4 0.50676 0.14045 0.24844 1.0000
Lr2 Lr 4 0.50638 0.53079 0.25186 1.0000
Lr3 Lr 4 0.20387 0.28132 0.97823 1.0000
Lr4 Lr 4 0.20410 0.65892 0.01286 1.0000
Lr5 Lr 4 0.19716 0.42757 0.18354 1.0000
Lr6 Lr 4 0.96264 0.49884 0.99280 1.0000
Lr7 Lr 4 0.30884 0.17756 0.21089 1.0000
Lr8 Lr 4 0.70397 0.17923 0.29544 1.0000
loop_
_topos_bond_atom_site_label_1
_topos_bond_atom_site_label_2
_topos_bond_site_symmetry_1
_topos_bond_site_symmetry_2
_topos_bond_distance
_topos_bond_type
_topos_bond_multiplicity
O1 Si1 1_0_0_0 1_0_0_0 1.6100 V 4
O1 Si2 1_0_0_0 1_0_0_0 1.6100 V 4
O2 Si1 1_0_0_0 1_0_0_0 1.6090 V 4
O2 Si11 1_0_0_0 3_-1_0_0 1.6100 V 4
O3 Si1 1_0_0_0 1_0_0_0 1.6090 V 4
O4 Si16 1_0_0_0 4_-1_0_0 1.6090 V 4
O4 Si1 1_0_0_0 1_0_0_1 1.6100 V 4
O5 Si2 1_0_0_0 1_0_0_0 1.6080 V 4
O5 Si3 1_0_0_0 1_0_0_0 1.6090 V 4
O6 Si2 1_0_0_0 1_0_0_0 1.6100 V 4
O6 Si6 1_0_0_0 1_0_0_0 1.6110 V 4
O7 Si2 1_0_0_0 1_0_0_0 1.6080 V 4
O7 Si20 1_0_0_0 1_0_0_0 1.6090 V 4
O8 Si3 1_0_0_0 1_0_0_0 1.6110 V 4
O8 Si4 1_0_0_0 1_0_0_0 1.6110 V 4
O9 Si3 1_0_0_0 1_0_0_0 1.6120 V 4
O9 Si17 1_0_0_0 4_-1_0_-1 1.6100 V 4
O10 Si3 1_0_0_0 1_0_0_0 1.6070 V 4
O10 Si10 1_0_0_0 3_-1_0_0 1.6100 V 4
O11 Si4 1_0_0_0 1_0_0_0 1.6100 V 4
O11 Si5 1_0_0_0 1_0_0_0 1.6100 V 4
O12 Si7 1_0_0_0 1_0_0_0 1.6100 V 4
O12 Si4 1_0_0_0 1_0_0_0 1.6110 V 4
O13 Si18 1_0_0_0 1_0_0_0 1.6100 V 4
O13 Si4 1_0_0_0 1_0_0_0 1.6110 V 4
O14 Si6 1_0_0_0 1_0_0_0 1.6090 V 4
O14 Si5 1_0_0_0 1_0_0_0 1.6100 V 4
O15 Si5 1_0_0_0 1_0_0_0 1.6070 V 4
O15 Si12 1_0_0_0 3_-1_-1_0 1.6100 V 4
O16 Si5 1_0_0_0 1_0_0_0 1.6100 V 4
O17 Si14 1_0_0_0 4_-1_0_0 1.6090 V 4
O17 Si6 1_0_0_0 1_0_0_1 1.6100 V 4
O18 Si8 1_0_0_0 3_-1_0_0 1.6080 V 4
O18 Si6 1_0_0_0 1_0_1_0 1.6090 V 4
O19 Si8 1_0_0_0 1_0_0_0 1.6110 V 4
O19 Si7 1_0_0_0 1_0_0_0 1.6110 V 4
O20 Si15 1_0_0_0 1_0_0_0 1.6080 V 4
O20 Si7 1_0_0_0 1_0_0_0 1.6100 V 4
O21 Si11 1_0_0_0 1_0_0_0 1.6090 V 4
O21 Si7 1_0_0_0 1_0_0_0 1.6090 V 4
O22 Si9 1_0_0_0 1_0_0_0 1.6090 V 4
O22 Si8 1_0_0_0 1_0_0_0 1.6100 V 4
O23 Si8 1_0_0_0 1_0_0_0 1.6090 V 4
O23 Si21 1_0_0_0 3_0_0_0 1.6090 V 4
O24 Si10 1_0_0_0 1_0_0_0 1.6100 V 4
O24 Si9 1_0_0_0 1_0_0_0 1.6110 V 4
O25 Si12 1_0_0_0 1_0_0_0 1.6090 V 4
O25 Si9 1_0_0_0 1_0_0_0 1.6110 V 4
O26 Si13 1_0_0_0 1_0_0_0 1.6070 V 4
O26 Si9 1_0_0_0 1_0_0_0 1.6090 V 4
O27 Si10 1_0_0_0 1_0_0_0 1.6100 V 4
O27 Si11 1_0_0_0 1_0_0_0 1.6110 V 4
O28 Si19 1_0_0_0 3_0_0_0 1.6090 V 4
O28 Si10 1_0_0_0 1_0_1_0 1.6110 V 4
O29 Si11 1_0_0_0 1_0_0_0 1.6090 V 4
O29 Si23 1_0_0_0 3_0_-1_0 1.6080 V 4
O30 Si12 1_0_0_0 1_0_0_0 1.6100 V 4
O30 Si22 1_0_0_0 3_0_0_0 1.6100 V 4
O31 Si23 1_0_0_0 1_0_0_0 1.6100 V 4
O31 Si12 1_0_0_0 1_-1_0_0 1.6100 V 4
O32 Si22 1_0_0_0 3_0_0_0 1.6090 V 4
O33 Si13 1_0_0_0 1_0_0_0 1.6110 V 4
O34 Si14 1_0_0_0 1_0_0_0 1.6090 V 4
O34 Si13 1_0_0_0 1_0_0_0 1.6110 V 4
O35 Si17 1_0_0_0 1_0_0_0 1.6100 V 4
O35 Si13 1_0_0_0 1_0_0_0 1.6110 V 4
O36 Si15 1_0_0_0 1_0_0_0 1.6110 V 4
O36 Si14 1_0_0_0 1_0_0_0 1.6110 V 4
O37 Si14 1_0_0_0 1_0_0_0 1.6100 V 4
O37 Si21 1_0_0_0 3_0_0_0 1.6100 V 4
O38 Si15 1_0_0_0 1_0_0_0 1.6080 V 4
O38 Si16 1_0_0_0 1_0_0_0 1.6090 V 4
O39 Si18 1_0_0_0 1_0_0_0 1.6090 V 4
O39 Si15 1_0_0_0 1_0_0_0 1.6110 V 4
O40 Si16 1_0_0_0 1_0_0_0 1.6100 V 4
O40 Si17 1_0_0_0 1_0_0_0 1.6110 V 4
O41 Si16 1_0_0_0 1_0_0_0 1.6090 V 4
O41 Si23 1_0_0_0 3_0_-1_0 1.6090 V 4
O42 Si17 1_0_0_0 1_0_1_0 1.6090 V 4
O42 Si19 1_0_0_0 3_0_0_0 1.6100 V 4
O43 Si18 1_0_0_0 1_0_0_0 1.6090 V 4
O43 Si19 1_0_0_0 1_0_0_0 1.6100 V 4
O44 Si18 1_0_0_0 1_0_0_0 1.6090 V 4
O44 Si22 1_0_0_0 1_0_0_0 1.6100 V 4
O45 Si19 1_0_0_0 1_0_0_0 1.6090 V 4
O45 Si20 1_0_0_0 1_0_0_0 1.6100 V 4
O46 Si21 1_0_0_0 1_0_0_0 1.6100 V 4
O46 Si20 1_0_0_0 1_0_0_0 1.6110 V 4
O47 Si23 1_0_0_0 1_0_0_0 1.6100 V 4
O47 Si20 1_0_0_0 1_0_0_0 1.6120 V 4
O48 Si22 1_0_0_0 1_0_0_0 1.6110 V 4
O48 Si21 1_0_0_0 1_0_0_0 1.6110 V 4
Lr2 Lr6 1_0_0_0 4_-1_1_-1 8.0880 V 4
Lr2 Lr6 1_0_0_0 3_-1_0_-1 8.0540 V 4
Lr4 Lr6 1_0_0_0 3_-1_0_-1 7.0260 V 4
Lr4 Lr6 1_0_0_0 1_-1_0_-1 5.3040 V 4
Lr6 Lr6 1_0_0_0 1_0_-1_0 13.3040 V 4
#End of data_225-TOPOS_SVR-PPT1

data_226-TOPOS_SVV-PPT1
_audit_creation_date                2025-02-23
_audit_creation_method              ToposPro
_chemical_formula_structural        SVV-PPT1
_chemical_formula_sum               'Lr1 O14 Si7'
_citation_special_details
;
Space Group: C2/M->C 2/m. File: SVV-PPT1.cif. 
;
_cell_length_a                      13.1231
_cell_length_b                      13.3734
_cell_length_c                      22.8608
_cell_angle_alpha                   90
_cell_angle_beta                    129.2592
_cell_angle_gamma                   90
_cell_volume                        3106.518
_cell_formula_units_Z               8
_symmetry_space_group_name_H-M      'C 2/m'
_symmetry_Int_Tables_number         12
_refine_ls_R_factor_all             0
loop_
_symmetry_equiv_pos_site_id
_symmetry_equiv_pos_as_xyz
1 x,y,z
2 -x,y,-z
3 -x,-y,-z
4 x,-y,z
5 1/2+x,1/2+y,z
6 1/2-x,1/2+y,-z
7 1/2-x,1/2-y,-z
8 1/2+x,1/2-y,z
loop_
_atom_site_label
_atom_site_type_symbol
_atom_site_symmetry_multiplicity
_atom_site_fract_x
_atom_site_fract_y
_atom_site_fract_z
_atom_site_occupancy
O1 O 8 0.69546 0.66879 0.12448 1.0000
O2 O 8 0.66209 0.64341 0.99941 1.0000
O3 O 8 0.74198 0.81810 0.06969 1.0000
O4 O 8 0.99381 0.85483 0.14935 1.0000
O5 O 8 0.24918 0.88009 0.25217 1.0000
O6 O 8 0.44126 0.82907 0.25033 1.0000
O7 O 8 0.11290 0.81366 0.29248 1.0000
O8 O 8 0.65736 0.81697 0.39177 1.0000
O9 O 8 0.46954 0.68320 0.33647 1.0000
O10 O 8 0.62209 0.62589 0.47840 1.0000
O11 O 8 0.36845 0.65071 0.40412 1.0000
O12 O 4 0.50000 0.75812 0.00000 1.0000
O13 O 4 0.82123 0.00000 0.07319 1.0000
O14 O 4 0.31797 0.00000 0.19119 1.0000
O15 O 4 0.08699 0.00000 0.24842 1.0000
O16 O 4 0.74403 0.00000 0.40769 1.0000
O17 O 4 0.45222 0.50000 0.37088 1.0000
Si1 Si 8 0.65046 0.72200 0.04824 1.0000
Si2 Si 8 0.84912 0.88284 0.07319 1.0000
Si3 Si 8 0.30152 0.88503 0.20474 1.0000
Si4 Si 8 0.11040 0.88658 0.23562 1.0000
Si5 Si 8 0.54512 0.75372 0.31780 1.0000
Si6 Si 8 0.47800 0.61507 0.39748 1.0000
Si7 Si 8 0.78701 0.88493 0.43125 1.0000
Lr1 Lr 2 0.50000 0.00000 0.00000 1.0000
Lr2 Lr 2 0.00000 0.00000 0.00000 1.0000
Lr3 Lr 2 0.50000 0.00000 0.50000 1.0000
Lr4 Lr 2 0.50000 0.50000 0.50000 1.0000
loop_
_topos_bond_atom_site_label_1
_topos_bond_atom_site_label_2
_topos_bond_site_symmetry_1
_topos_bond_site_symmetry_2
_topos_bond_distance
_topos_bond_type
_topos_bond_multiplicity
O1 Si1 1_0_0_0 1_0_0_0 1.6090 V 8
O1 Si3 1_0_0_0 8_0_1_0 1.6090 V 8
O2 Si1 1_0_0_0 1_0_0_1 1.6090 V 8
O2 Si2 1_0_0_0 7_1_1_1 1.6090 V 8
O3 Si1 1_0_0_0 1_0_0_0 1.6090 V 8
O3 Si2 1_0_0_0 1_0_0_0 1.6090 V 8
O4 Si2 1_0_0_0 1_0_0_0 1.6100 V 8
O4 Si4 1_0_0_0 1_1_0_0 1.6100 V 8
O5 Si3 1_0_0_0 1_0_0_0 1.6110 V 8
O5 Si4 1_0_0_0 1_0_0_0 1.6110 V 8
O6 Si3 1_0_0_0 1_0_0_0 1.6090 V 8
O6 Si5 1_0_0_0 1_0_0_0 1.6100 V 8
O7 Si4 1_0_0_0 1_0_0_0 1.6090 V 8
O7 Si5 1_0_0_0 8_-1_1_0 1.6090 V 8
O8 Si7 1_0_0_0 1_0_0_0 1.6100 V 8
O8 Si5 1_0_0_0 1_0_0_0 1.6100 V 8
O9 Si5 1_0_0_0 1_0_0_0 1.6100 V 8
O9 Si6 1_0_0_0 1_0_0_0 1.6100 V 8
O10 Si6 1_0_0_0 1_0_0_0 1.6100 V 8
O10 Si7 1_0_0_0 7_1_1_1 1.6100 V 8
O11 Si6 1_0_0_0 1_0_0_0 1.6100 V 8
O11 Si7 1_0_0_0 8_-1_1_0 1.6100 V 8
O12 Si1 1_0_0_0 1_0_0_0 1.6100 V 8
O13 Si2 1_0_0_0 1_0_-1_0 1.6090 V 8
O14 Si3 1_0_0_0 1_0_-1_0 1.6100 V 8
O15 Si4 1_0_0_0 1_0_-1_0 1.6110 V 8
O16 Si7 1_0_0_0 1_0_-1_0 1.6100 V 8
O17 Si6 1_0_0_0 1_0_0_0 1.6100 V 8
#End of data_226-TOPOS_SVV-PPT1

data_227-TOPOS_SWY-PPT1
_audit_creation_date                2025-02-23
_audit_creation_method              ToposPro
_chemical_formula_structural        SWY-PPT1
_chemical_formula_sum               'Lr1 O12 Si6'
_citation_special_details
;
Space Group: P63/MMC->P 63/m m c. File: SWY-PPT1.cif. 
;
_cell_length_a                      13.0721
_cell_length_b                      13.0721
_cell_length_c                      30.2618
_cell_angle_alpha                   90
_cell_angle_beta                    90
_cell_angle_gamma                   120
_cell_volume                        4478.33
_cell_formula_units_Z               12
_symmetry_space_group_name_H-M      'P 63/m m c'
_symmetry_Int_Tables_number         194
_refine_ls_R_factor_all             0
loop_
_symmetry_equiv_pos_site_id
_symmetry_equiv_pos_as_xyz
1 x,y,z
2 -x,-y,1/2+z
3 -y,x-y,z
4 -x+y,-x,z
5 x-y,x,1/2+z
6 y,-x+y,1/2+z
7 x-y,-y,-z
8 -x,-x+y,-z
9 y,x,-z
10 -y,-x,1/2-z
11 x,x-y,1/2-z
12 -x+y,y,1/2-z
13 -x,-y,-z
14 x,y,1/2-z
15 y,-x+y,-z
16 x-y,x,-z
17 -x+y,-x,1/2-z
18 -y,x-y,1/2-z
19 -x+y,y,z
20 x,x-y,z
21 -y,-x,z
22 y,x,1/2+z
23 -x,-x+y,1/2+z
24 x-y,-y,1/2+z
loop_
_atom_site_label
_atom_site_type_symbol
_atom_site_symmetry_multiplicity
_atom_site_fract_x
_atom_site_fract_y
_atom_site_fract_z
_atom_site_occupancy
O1 O 24 0.03509 0.34799 0.16856 1.0000
O2 O 24 0.03413 0.34761 0.08173 1.0000
O3 O 12 0.23454 0.46908 0.12485 1.0000
O4 O 12 0.09688 0.19376 0.19344 1.0000
O5 O 12 0.09679 0.19358 0.05760 1.0000
O6 O 12 0.07660 0.53830 0.12512 1.0000
O7 O 12 0.99539 0.26786 0.25000 1.0000
O8 O 12 0.87216 0.12784 0.18465 1.0000
O9 O 12 0.87164 0.12836 0.06426 1.0000
O10 O 12 0.00000 0.27011 0.00000 1.0000
Si1 Si 24 0.09562 0.42596 0.12506 1.0000
Si2 Si 24 0.99987 0.23435 0.19912 1.0000
Si3 Si 24 0.00048 0.23475 0.05092 1.0000
Lr1 Lr 4 0.00000 0.00000 0.12503 1.0000
Lr2 Lr 2 0.33333 0.66667 0.75000 1.0000
Lr3 Lr 2 0.33333 0.66667 0.25000 1.0000
Lr4 Lr 2 0.00000 0.00000 0.25000 1.0000
Lr5 Lr 2 0.00000 0.00000 0.00000 1.0000
loop_
_topos_bond_atom_site_label_1
_topos_bond_atom_site_label_2
_topos_bond_site_symmetry_1
_topos_bond_site_symmetry_2
_topos_bond_distance
_topos_bond_type
_topos_bond_multiplicity
O1 Si1 1_0_0_0 1_0_0_0 1.6100 V 24
O1 Si2 1_0_0_0 1_-1_0_0 1.6090 V 24
O2 Si3 1_0_0_0 1_0_0_0 1.6090 V 24
O2 Si1 1_0_0_0 1_0_0_0 1.6100 V 24
O3 Si1 1_0_0_0 1_0_0_0 1.6100 V 24
O4 Si2 1_0_0_0 1_-1_0_0 1.6100 V 24
O5 Si3 1_0_0_0 1_0_0_0 1.6100 V 24
O6 Si1 1_0_0_0 1_0_0_0 1.6070 V 24
O7 Si2 1_0_0_0 1_0_0_0 1.6100 V 24
O8 Si2 1_0_0_0 1_0_0_0 1.6100 V 24
O9 Si3 1_0_0_0 1_1_0_0 1.6100 V 24
O10 Si3 1_0_0_0 1_0_0_0 1.6100 V 24
Lr2 Lr3 1_0_0_0 2_1_2_0 7.5470 V 6
Lr2 Lr2 1_0_0_0 2_1_1_-1 16.9090 V 6
#End of data_227-TOPOS_SWY-PPT1

data_228-TOPOS_-SYT-NT
_audit_creation_date                2025-02-23
_audit_creation_method              ToposPro
_chemical_formula_structural        -SYT-NT
_chemical_formula_sum               'Lr7 O66 Si32'
_citation_special_details
;
Space Group: I4/MCM->I 4/m c m. File: -SYT-NT.cif. 
;
_cell_length_a                      27.342
_cell_length_b                      27.342
_cell_length_c                      13.9854
_cell_angle_alpha                   90
_cell_angle_beta                    90
_cell_angle_gamma                   90
_cell_volume                        10455.27
_cell_formula_units_Z               4
_symmetry_space_group_name_H-M      'I 4/m c m'
_symmetry_Int_Tables_number         140
_refine_ls_R_factor_all             0
loop_
_symmetry_equiv_pos_site_id
_symmetry_equiv_pos_as_xyz
1 x,y,z
2 -x,-y,z
3 x,-y,1/2-z
4 -x,y,1/2-z
5 -y,-x,1/2-z
6 y,x,1/2-z
7 y,-x,z
8 -y,x,z
9 -x,-y,-z
10 x,y,-z
11 -x,y,1/2+z
12 x,-y,1/2+z
13 y,x,1/2+z
14 -y,-x,1/2+z
15 -y,x,-z
16 y,-x,-z
17 1/2+x,1/2+y,1/2+z
18 1/2-x,1/2-y,1/2+z
19 1/2+x,1/2-y,-z
20 1/2-x,1/2+y,-z
21 1/2-y,1/2-x,-z
22 1/2+y,1/2+x,-z
23 1/2+y,1/2-x,1/2+z
24 1/2-y,1/2+x,1/2+z
25 1/2-x,1/2-y,1/2-z
26 1/2+x,1/2+y,1/2-z
27 1/2-x,1/2+y,z
28 1/2+x,1/2-y,z
29 1/2+y,1/2+x,z
30 1/2-y,1/2-x,z
31 1/2-y,1/2+x,1/2-z
32 1/2+y,1/2-x,1/2-z
loop_
_atom_site_label
_atom_site_type_symbol
_atom_site_symmetry_multiplicity
_atom_site_fract_x
_atom_site_fract_y
_atom_site_fract_z
_atom_site_occupancy
O1 O 32 0.12980 0.13010 0.59410 1.0000
O2 O 32 0.00020 0.18390 0.59400 1.0000
O3 O 32 0.04150 0.27070 0.59400 1.0000
O4 O 32 0.16200 0.22060 0.59400 1.0000
O5 O 32 0.08200 0.19810 0.68890 1.0000
O6 O 16 0.04790 0.11550 0.50000 1.0000
O7 O 16 0.11590 0.04800 0.50000 1.0000
O8 O 16 0.12160 0.29330 0.50000 1.0000
O9 O 16 0.04680 0.35370 0.50000 1.0000
O10 O 16 0.00000 0.23760 0.75000 1.0000
O11 O 8 0.21730 0.28270 0.50000 1.0000
O12 O 16 0.16790 0.16790 0.75000 1.0000
Si1 Si 32 0.13530 0.17910 0.65680 1.0000
Si2 Si 32 0.03100 0.22240 0.65670 1.0000
Si3 Si 16 0.10590 0.10600 0.50000 1.0000
Si4 Si 16 0.16570 0.25430 0.50000 1.0000
Si5 Si 16 0.00000 0.14990 0.50000 1.0000
Si6 Si 16 0.06280 0.29710 0.50000 1.0000
Lr1 Lr 16 0.08337 0.20129 0.50000 1.0000
Lr2 Lr 4 0.00000 0.50000 0.75000 1.0000
Lr3 Lr 4 0.00000 0.00000 0.75000 1.0000
Lr4 Lr 4 0.50000 0.00000 0.50000 1.0000
loop_
_topos_bond_atom_site_label_1
_topos_bond_atom_site_label_2
_topos_bond_site_symmetry_1
_topos_bond_site_symmetry_2
_topos_bond_distance
_topos_bond_type
_topos_bond_multiplicity
O1 Si1 1_0_0_0 1_0_0_0 1.6080 V 32
O1 Si3 1_0_0_0 1_0_0_0 1.6100 V 32
O2 Si2 1_0_0_0 1_0_0_0 1.6080 V 32
O2 Si5 1_0_0_0 1_0_0_0 1.6100 V 32
O3 Si6 1_0_0_0 1_0_0_0 1.6090 V 32
O3 Si2 1_0_0_0 1_0_0_0 1.6110 V 32
O4 Si4 1_0_0_0 1_0_0_0 1.6090 V 32
O4 Si1 1_0_0_0 1_0_0_0 1.6100 V 32
O5 Si2 1_0_0_0 1_0_0_0 1.6090 V 32
O5 Si1 1_0_0_0 1_0_0_0 1.6110 V 32
O6 Si3 1_0_0_0 1_0_0_0 1.6070 V 16
O6 Si5 1_0_0_0 1_0_0_0 1.6120 V 16
O7 Si3 1_0_0_0 1_0_0_0 1.6090 V 16
O7 Si5 1_0_0_0 7_0_0_0 1.6080 V 16
O8 Si4 1_0_0_0 1_0_0_0 1.6100 V 16
O8 Si6 1_0_0_0 1_0_0_0 1.6110 V 16
O9 Si6 1_0_0_0 1_0_0_0 1.6080 V 16
O10 Si2 1_0_0_0 1_0_0_0 1.6110 V 32
O11 Si4 1_0_0_0 1_0_0_0 1.6100 V 16
O12 Si1 1_0_0_0 1_0_0_0 1.6080 V 32
Lr2 Lr4 1_0_0_0 7_0_1_0 3.4960 V 8
Lr3 Lr3 1_0_0_0 9_0_0_1 6.9930 V 4
Lr4 Lr4 1_0_0_0 5_1_0_0 20.5590 V 8
#End of data_228-TOPOS_-SYT-NT

data_229-TOPOS_SZR-PPT1
_audit_creation_date                2025-02-23
_audit_creation_method              ToposPro
_chemical_formula_structural        SZR-PPT1
_chemical_formula_sum               'Lr4 O18 Si9'
_citation_special_details
;
Space Group: CMMM->C m m m. File: SZR-PPT1.cif. 
;
_cell_length_a                      18.87
_cell_length_b                      14.401
_cell_length_c                      7.514
_cell_angle_alpha                   90
_cell_angle_beta                    90
_cell_angle_gamma                   90
_cell_volume                        2041.906
_cell_formula_units_Z               4
_symmetry_space_group_name_H-M      'C m m m'
_symmetry_Int_Tables_number         65
_refine_ls_R_factor_all             0
loop_
_symmetry_equiv_pos_site_id
_symmetry_equiv_pos_as_xyz
1 x,y,z
2 -x,-y,z
3 x,-y,-z
4 -x,y,-z
5 -x,-y,-z
6 x,y,-z
7 -x,y,z
8 x,-y,z
9 1/2+x,1/2+y,z
10 1/2-x,1/2-y,z
11 1/2+x,1/2-y,-z
12 1/2-x,1/2+y,-z
13 1/2-x,1/2-y,-z
14 1/2+x,1/2+y,-z
15 1/2-x,1/2+y,z
16 1/2+x,1/2-y,z
loop_
_atom_site_label
_atom_site_type_symbol
_atom_site_symmetry_multiplicity
_atom_site_fract_x
_atom_site_fract_y
_atom_site_fract_z
_atom_site_occupancy
O1 O 16 0.10290 0.09120 0.24740 1.0000
O2 O 16 0.13020 0.26630 0.17510 1.0000
O3 O 8 0.00000 0.21450 0.24640 1.0000
O4 O 8 0.22010 0.00000 0.17510 1.0000
O5 O 4 0.25000 0.25000 0.00000 1.0000
O6 O 8 0.31860 0.09110 0.00000 1.0000
O7 O 4 0.16990 0.00000 0.50000 1.0000
O8 O 8 0.09620 0.21760 0.50000 1.0000
Si1 Si 16 0.08220 0.19710 0.29250 1.0000
Si2 Si 8 0.14880 0.00000 0.29250 1.0000
Si3 Si 8 0.17300 0.29770 0.00000 1.0000
Si4 Si 4 0.26920 0.00000 0.00000 1.0000
Lr1 Lr 8 0.23633 0.16667 0.50000 1.0000
Lr2 Lr 2 0.00000 0.00000 0.50000 1.0000
Lr3 Lr 2 0.00000 0.50000 0.50000 1.0000
Lr4 Lr 2 0.00000 0.00000 0.00000 1.0000
Lr5 Lr 2 0.00000 0.50000 0.00000 1.0000
loop_
_topos_bond_atom_site_label_1
_topos_bond_atom_site_label_2
_topos_bond_site_symmetry_1
_topos_bond_site_symmetry_2
_topos_bond_distance
_topos_bond_type
_topos_bond_multiplicity
O1 Si2 1_0_0_0 1_0_0_0 1.6090 V 16
O1 Si1 1_0_0_0 1_0_0_0 1.6100 V 16
O2 Si3 1_0_0_0 1_0_0_0 1.6090 V 16
O2 Si1 1_0_0_0 1_0_0_0 1.6100 V 16
O3 Si1 1_0_0_0 1_0_0_0 1.6090 V 16
O4 Si2 1_0_0_0 1_0_0_0 1.6090 V 8
O4 Si4 1_0_0_0 1_0_0_0 1.6090 V 8
O5 Si3 1_0_0_0 1_0_0_0 1.6070 V 8
O6 Si4 1_0_0_0 1_0_0_0 1.6090 V 8
O6 Si3 1_0_0_0 10_0_0_0 1.6090 V 8
O7 Si2 1_0_0_0 1_0_0_0 1.6090 V 8
O8 Si1 1_0_0_0 1_0_0_0 1.6090 V 16
Lr1 Lr3 1_0_0_0 9_0_-1_0 5.5240 V 8
Lr1 Lr1 1_0_0_0 10_0_0_0 2.4550 V 4
Lr3 Lr5 1_0_0_0 1_0_0_0 3.7570 V 4
#End of data_229-TOPOS_SZR-PPT1

data_230-TOPOS_TER-PPT1
_audit_creation_date                2025-02-23
_audit_creation_method              ToposPro
_chemical_formula_structural        TER-PPT1
_chemical_formula_sum               'Lr3 O8 Si4'
_citation_special_details
;
Space Group: CMCM->C m c m. File: TER-PPT1.cif. 
;
_cell_length_a                      9.807
_cell_length_b                      23.646
_cell_length_c                      20.242
_cell_angle_alpha                   90
_cell_angle_beta                    90
_cell_angle_gamma                   90
_cell_volume                        4694.046
_cell_formula_units_Z               20
_symmetry_space_group_name_H-M      'C m c m'
_symmetry_Int_Tables_number         63
_refine_ls_R_factor_all             0
loop_
_symmetry_equiv_pos_site_id
_symmetry_equiv_pos_as_xyz
1 x,y,z
2 -x,-y,1/2+z
3 x,-y,-z
4 -x,y,1/2-z
5 -x,-y,-z
6 x,y,1/2-z
7 -x,y,z
8 x,-y,1/2+z
9 1/2+x,1/2+y,z
10 1/2-x,1/2-y,1/2+z
11 1/2+x,1/2-y,-z
12 1/2-x,1/2+y,1/2-z
13 1/2-x,1/2-y,-z
14 1/2+x,1/2+y,1/2-z
15 1/2-x,1/2+y,z
16 1/2+x,1/2-y,1/2+z
loop_
_atom_site_label
_atom_site_type_symbol
_atom_site_symmetry_multiplicity
_atom_site_fract_x
_atom_site_fract_y
_atom_site_fract_z
_atom_site_occupancy
O1 O 16 0.63420 0.36070 0.34500 1.0000
O2 O 16 0.86590 0.30490 0.34300 1.0000
O3 O 16 0.86590 0.41620 0.34300 1.0000
O4 O 16 0.79310 0.36080 0.44970 1.0000
O5 O 16 0.63400 0.63910 0.44560 1.0000
O6 O 16 0.86580 0.58300 0.44360 1.0000
O7 O 16 0.86590 0.69410 0.44300 1.0000
O8 O 4 0.00000 0.47020 0.25000 1.0000
O9 O 4 0.00000 0.25080 0.25000 1.0000
O10 O 4 0.00000 0.80860 0.25000 1.0000
O11 O 8 0.00000 0.50970 0.37080 1.0000
O12 O 8 0.00000 0.76700 0.37000 1.0000
O13 O 8 0.00000 0.77710 0.49950 1.0000
O14 O 8 0.00000 0.21160 0.37120 1.0000
O15 O 4 0.00000 0.50000 0.50000 1.0000
Si1 Si 16 0.78990 0.36060 0.37030 1.0000
Si2 Si 16 0.78980 0.63870 0.47080 1.0000
Si3 Si 8 0.00000 0.45290 0.32690 1.0000
Si4 Si 8 0.00000 0.54400 0.43950 1.0000
Si5 Si 8 0.00000 0.73320 0.43900 1.0000
Si6 Si 8 0.00000 0.26820 0.32690 1.0000
Si7 Si 8 0.00000 0.17830 0.44050 1.0000
Si8 Si 8 0.00000 0.82450 0.32730 1.0000
Lr1 Lr 16 0.75443 0.27259 0.44717 1.0000
Lr2 Lr 4 0.00000 0.36057 0.25000 1.0000
Lr3 Lr 4 0.00000 0.63867 0.25000 1.0000
Lr4 Lr 8 0.00000 0.36100 0.44543 1.0000
Lr5 Lr 8 0.50000 0.44904 0.44754 1.0000
Lr6 Lr 8 0.82248 0.35155 0.25000 1.0000
Lr7 Lr 8 0.68751 0.18755 0.25000 1.0000
Lr8 Lr 4 0.50000 0.52395 0.25000 1.0000
loop_
_topos_bond_atom_site_label_1
_topos_bond_atom_site_label_2
_topos_bond_site_symmetry_1
_topos_bond_site_symmetry_2
_topos_bond_distance
_topos_bond_type
_topos_bond_multiplicity
O1 Si1 1_0_0_0 1_0_0_0 1.6110 V 16
O1 Si8 1_0_0_0 9_0_-1_0 1.6100 V 16
O2 Si1 1_0_0_0 1_0_0_0 1.6110 V 16
O2 Si6 1_0_0_0 1_1_0_0 1.6090 V 16
O3 Si1 1_0_0_0 1_0_0_0 1.6090 V 16
O3 Si3 1_0_0_0 1_1_0_0 1.6090 V 16
O4 Si1 1_0_0_0 1_0_0_0 1.6080 V 16
O4 Si2 1_0_0_0 3_0_1_1 1.6100 V 16
O5 Si2 1_0_0_0 1_0_0_0 1.6110 V 16
O5 Si7 1_0_0_0 9_0_0_0 1.6110 V 16
O6 Si2 1_0_0_0 1_0_0_0 1.6100 V 16
O6 Si4 1_0_0_0 1_1_0_0 1.6090 V 16
O7 Si2 1_0_0_0 1_0_0_0 1.6090 V 16
O7 Si5 1_0_0_0 1_1_0_0 1.6100 V 16
O8 Si3 1_0_0_0 1_0_0_0 1.6090 V 8
O9 Si6 1_0_0_0 1_0_0_0 1.6100 V 8
O10 Si8 1_0_0_0 1_0_0_0 1.6090 V 8
O11 Si4 1_0_0_0 1_0_0_0 1.6100 V 8
O11 Si3 1_0_0_0 1_0_0_0 1.6100 V 8
O12 Si5 1_0_0_0 1_0_0_0 1.6090 V 8
O12 Si8 1_0_0_0 1_0_0_0 1.6110 V 8
O13 Si5 1_0_0_0 1_0_0_0 1.6050 V 8
O13 Si7 1_0_0_0 3_0_1_1 1.6080 V 8
O14 Si7 1_0_0_0 1_0_0_0 1.6090 V 8
O14 Si6 1_0_0_0 1_0_0_0 1.6110 V 8
O15 Si4 1_0_0_0 1_0_0_0 1.6070 V 8
Lr1 Lr1 1_0_0_0 13_1_0_1 2.3920 V 8
Lr2 Lr6 1_0_0_0 4_1_0_0 1.7540 V 8
Lr3 Lr7 1_0_0_0 9_-1_0_0 2.1720 V 8
Lr5 Lr8 1_0_0_0 1_0_0_0 4.3730 V 8
Lr5 Lr5 1_0_0_0 3_0_1_1 3.2120 V 4
Lr7 Lr8 1_0_0_0 9_0_-1_0 4.9350 V 8
#End of data_230-TOPOS_TER-PPT1

data_231-TOPOS_THO-PPT1
_audit_creation_date                2025-02-23
_audit_creation_method              ToposPro
_chemical_formula_structural        THO-PPT1
_chemical_formula_sum               'Lr1 O2 Si1'
_citation_special_details
;
Space Group: PMMA->P m m a. File: THO-PPT1.cif. 
;
_cell_length_a                      14
_cell_length_b                      7
_cell_length_c                      6.482
_cell_angle_alpha                   90
_cell_angle_beta                    90
_cell_angle_gamma                   90
_cell_volume                        635.236
_cell_formula_units_Z               10
_symmetry_space_group_name_H-M      'P m m a'
_symmetry_Int_Tables_number         51
_refine_ls_R_factor_all             0
loop_
_symmetry_equiv_pos_site_id
_symmetry_equiv_pos_as_xyz
1 x,y,z
2 1/2-x,-y,z
3 1/2+x,-y,-z
4 -x,y,-z
5 -x,-y,-z
6 1/2+x,y,-z
7 1/2-x,y,z
8 x,-y,z
loop_
_atom_site_label
_atom_site_type_symbol
_atom_site_symmetry_multiplicity
_atom_site_fract_x
_atom_site_fract_y
_atom_site_fract_z
_atom_site_occupancy
O1 O 8 0.65510 0.18980 0.38180 1.0000
O2 O 2 0.50000 0.00000 0.50000 1.0000
O3 O 4 0.65500 0.00000 0.73680 1.0000
O4 O 2 0.75000 0.50000 0.26350 1.0000
O5 O 4 0.75000 0.18990 0.02680 1.0000
Si1 Si 4 0.61610 0.00000 0.50010 1.0000
Si2 Si 4 0.75000 0.26790 0.26340 1.0000
Si3 Si 2 0.75000 0.00000 0.88180 1.0000
Lr1 Lr 2 0.75000 0.50000 0.68176 1.0000
Lr2 Lr 2 0.75000 0.00000 0.48176 1.0000
Lr3 Lr 2 0.75000 0.00000 0.28176 1.0000
Lr4 Lr 2 0.50000 0.00000 0.00000 1.0000
Lr5 Lr 2 0.50000 0.50000 0.00000 1.0000
loop_
_topos_bond_atom_site_label_1
_topos_bond_atom_site_label_2
_topos_bond_site_symmetry_1
_topos_bond_site_symmetry_2
_topos_bond_distance
_topos_bond_type
_topos_bond_multiplicity
O1 Si1 1_0_0_0 1_0_0_0 1.6280 V 8
O1 Si2 1_0_0_0 1_0_0_0 1.6290 V 8
O2 Si1 1_0_0_0 1_0_0_0 1.6250 V 4
O3 Si1 1_0_0_0 1_0_0_0 1.6280 V 4
O3 Si3 1_0_0_0 1_0_0_0 1.6290 V 4
O4 Si2 1_0_0_0 1_0_0_0 1.6250 V 4
O5 Si2 1_0_0_0 1_0_0_0 1.6280 V 4
O5 Si3 1_0_0_0 1_0_0_-1 1.6280 V 4
Lr1 Lr5 1_0_0_0 2_1_1_1 4.0630 V 4
Lr2 Lr3 1_0_0_0 1_0_0_0 1.2960 V 2
Lr4 Lr5 1_0_0_0 1_0_0_0 3.5000 V 4
Lr5 Lr5 1_0_0_0 1_0_0_1 6.4820 V 2
#End of data_231-TOPOS_THO-PPT1

data_232-TOPOS_TOL-PPT1
_audit_creation_date                2025-02-23
_audit_creation_method              ToposPro
_chemical_formula_structural        TOL-PPT1
_chemical_formula_sum               'Lr1 O12 Si6'
_citation_special_details
;
Space Group: P-3M1->P -3 m 1. File: TOL-PPT1.cif. 
;
_cell_length_a                      12.279
_cell_length_b                      12.279
_cell_length_c                      30.869
_cell_angle_alpha                   90
_cell_angle_beta                    90
_cell_angle_gamma                   120
_cell_volume                        4030.688
_cell_formula_units_Z               12
_symmetry_space_group_name_H-M      'P -3 m 1'
_symmetry_Int_Tables_number         164
_refine_ls_R_factor_all             0
loop_
_symmetry_equiv_pos_site_id
_symmetry_equiv_pos_as_xyz
1 x,y,z
2 -y,x-y,z
3 -x+y,-x,z
4 x-y,-y,-z
5 -x,-x+y,-z
6 y,x,-z
7 -x,-y,-z
8 y,-x+y,-z
9 x-y,x,-z
10 -x+y,y,z
11 x,x-y,z
12 -y,-x,z
loop_
_atom_site_label
_atom_site_type_symbol
_atom_site_symmetry_multiplicity
_atom_site_fract_x
_atom_site_fract_y
_atom_site_fract_z
_atom_site_occupancy
O1 O 12 0.69020 0.99560 0.62420 1.0000
O2 O 12 0.65900 0.02140 0.70700 1.0000
O3 O 12 0.32670 0.97580 0.79130 1.0000
O4 O 12 0.31170 0.32290 0.87650 1.0000
O5 O 12 0.34690 0.04020 0.95980 1.0000
O6 O 12 0.34750 0.03570 0.45950 1.0000
O7 O 6 0.88750 0.11250 0.67530 1.0000
O8 O 6 0.88160 0.11840 0.51230 1.0000
O9 O 6 0.73770 0.86885 0.68270 1.0000
O10 O 6 0.40120 0.20060 0.76180 1.0000
O11 O 6 0.27080 0.13540 0.82560 1.0000
O12 O 6 0.44650 0.22325 0.90280 1.0000
O13 O 6 0.23370 0.11685 0.01390 1.0000
O14 O 6 0.45980 0.22990 0.40730 1.0000
O15 O 6 0.55620 0.11240 0.76040 1.0000
O16 O 6 0.53355 0.06710 0.91080 1.0000
O17 O 6 0.52905 0.05810 0.40810 1.0000
O18 O 6 0.10625 0.21250 0.82880 1.0000
Si1 Si 12 0.74400 0.00010 0.67210 1.0000
Si2 Si 12 0.41180 0.07650 0.75480 1.0000
Si3 Si 12 0.25340 0.25610 0.83070 1.0000
Si4 Si 12 0.40980 0.08010 0.91250 1.0000
Si5 Si 12 0.41240 0.08230 0.41270 1.0000
Si6 Si 6 0.74670 0.00000 0.50000 1.0000
Si7 Si 6 0.25090 0.25090 0.00000 1.0000
Lr1 Lr 2 0.00000 0.00000 0.58647 1.0000
Lr2 Lr 2 0.00000 0.00000 0.75253 1.0000
Lr3 Lr 2 0.00000 0.00000 0.91440 1.0000
Lr4 Lr 2 0.33333 0.66667 0.83499 1.0000
Lr5 Lr 2 0.66667 0.33333 0.58538 1.0000
Lr6 Lr 2 0.66667 0.33333 0.83267 1.0000
loop_
_topos_bond_atom_site_label_1
_topos_bond_atom_site_label_2
_topos_bond_site_symmetry_1
_topos_bond_site_symmetry_2
_topos_bond_distance
_topos_bond_type
_topos_bond_multiplicity
O1 Si1 1_0_0_0 1_0_1_0 1.6090 V 12
O1 Si5 1_0_0_0 7_1_1_1 1.6110 V 12
O2 Si1 1_0_0_0 1_0_0_0 1.6100 V 12
O2 Si2 1_0_0_0 10_1_0_0 1.6100 V 12
O3 Si3 1_0_0_0 11_0_1_0 1.6110 V 12
O3 Si2 1_0_0_0 1_0_1_0 1.6120 V 12
O4 Si3 1_0_0_0 1_0_0_0 1.6110 V 12
O4 Si4 1_0_0_0 11_0_0_0 1.6100 V 12
O5 Si4 1_0_0_0 1_0_0_0 1.6090 V 12
O5 Si7 1_0_0_0 8_0_0_1 1.6100 V 12
O6 Si5 1_0_0_0 1_0_0_0 1.6100 V 12
O6 Si6 1_0_0_0 7_1_0_1 1.6080 V 12
O7 Si1 1_0_0_0 1_0_0_0 1.6090 V 12
O8 Si6 1_0_0_0 8_1_1_1 1.6100 V 12
O9 Si1 1_0_0_0 1_0_1_0 1.6080 V 12
O10 Si2 1_0_0_0 1_0_0_0 1.6070 V 12
O11 Si3 1_0_0_0 1_0_0_0 1.6070 V 12
O12 Si4 1_0_0_0 1_0_0_0 1.6090 V 12
O13 Si7 1_0_0_0 8_0_0_0 1.6090 V 12
O14 Si5 1_0_0_0 1_0_0_0 1.6110 V 12
O15 Si2 1_0_0_0 1_0_0_0 1.6080 V 12
O16 Si4 1_0_0_0 1_0_0_0 1.6060 V 12
O17 Si5 1_0_0_0 1_0_0_0 1.6080 V 12
O18 Si3 1_0_0_0 1_0_0_0 1.6090 V 12
#End of data_232-TOPOS_TOL-PPT1

data_233-TOPOS_TON-PPT1
_audit_creation_date                2025-02-23
_audit_creation_method              ToposPro
_chemical_formula_structural        TON-PPT1
_chemical_formula_sum               'Lr2 O6 Si3'
_citation_special_details
;
Space Group: CMCM->C m c m. File: TON-PPT1.cif. 
;
_cell_length_a                      14.105
_cell_length_b                      17.842
_cell_length_c                      5.256
_cell_angle_alpha                   90
_cell_angle_beta                    90
_cell_angle_gamma                   90
_cell_volume                        1322.732
_cell_formula_units_Z               8
_symmetry_space_group_name_H-M      'C m c m'
_symmetry_Int_Tables_number         63
_refine_ls_R_factor_all             0
loop_
_symmetry_equiv_pos_site_id
_symmetry_equiv_pos_as_xyz
1 x,y,z
2 -x,-y,1/2+z
3 x,-y,-z
4 -x,y,1/2-z
5 -x,-y,-z
6 x,y,1/2-z
7 -x,y,z
8 x,-y,1/2+z
9 1/2+x,1/2+y,z
10 1/2-x,1/2-y,1/2+z
11 1/2+x,1/2-y,-z
12 1/2-x,1/2+y,1/2-z
13 1/2-x,1/2-y,-z
14 1/2+x,1/2+y,1/2-z
15 1/2-x,1/2+y,z
16 1/2+x,1/2-y,1/2+z
loop_
_atom_site_label
_atom_site_type_symbol
_atom_site_symmetry_multiplicity
_atom_site_fract_x
_atom_site_fract_y
_atom_site_fract_z
_atom_site_occupancy
O1 O 8 0.27240 0.00000 0.50000 1.0000
O2 O 8 0.40690 0.07070 0.75000 1.0000
O3 O 8 0.23250 0.12330 0.75000 1.0000
O4 O 8 0.09310 0.22090 0.75000 1.0000
O5 O 8 0.25000 0.25000 0.50000 1.0000
O6 O 8 0.00000 0.32510 0.00000 1.0000
Si1 Si 8 0.29630 0.04850 0.75000 1.0000
Si2 Si 8 0.20660 0.21110 0.75000 1.0000
Si3 Si 4 0.00000 0.27310 0.75000 1.0000
Si4 Si 4 0.50000 0.12290 0.75000 1.0000
Lr1 Lr 4 0.50000 0.36749 0.75000 1.0000
Lr2 Lr 8 0.34394 0.13692 0.25000 1.0000
Lr3 Lr 4 0.50000 0.04468 0.25000 1.0000
loop_
_topos_bond_atom_site_label_1
_topos_bond_atom_site_label_2
_topos_bond_site_symmetry_1
_topos_bond_site_symmetry_2
_topos_bond_distance
_topos_bond_type
_topos_bond_multiplicity
O1 Si1 1_0_0_0 3_0_0_1 1.6090 V 16
O2 Si1 1_0_0_0 1_0_0_0 1.6100 V 8
O2 Si4 1_0_0_0 1_0_0_0 1.6100 V 8
O3 Si2 1_0_0_0 1_0_0_0 1.6090 V 8
O3 Si1 1_0_0_0 1_0_0_0 1.6100 V 8
O4 Si3 1_0_0_0 1_0_0_0 1.6100 V 8
O4 Si2 1_0_0_0 1_0_0_0 1.6100 V 8
O5 Si2 1_0_0_0 1_0_0_0 1.6070 V 16
O6 Si4 1_0_0_0 10_0_0_-1 1.6090 V 8
O6 Si3 1_0_0_0 1_0_0_-1 1.6090 V 8
Lr1 Lr1 1_0_0_0 2_1_1_0 5.4100 V 4
Lr2 Lr3 1_0_0_0 1_0_0_0 2.7480 V 8
#End of data_233-TOPOS_TON-PPT1

data_234-TOPOS_TSC-PPT1
_audit_creation_date                2025-02-23
_audit_creation_method              ToposPro
_chemical_formula_structural        TSC-PPT1
_chemical_formula_sum               'Lr3 O32 Si16'
_citation_special_details
;
Space Group: FM-3M->F m -3 m. File: TSC-PPT1.cif. 
;
_cell_length_a                      30.742
_cell_length_b                      30.742
_cell_length_c                      30.742
_cell_angle_alpha                   90
_cell_angle_beta                    90
_cell_angle_gamma                   90
_cell_volume                        29053.36
_cell_formula_units_Z               24
_symmetry_space_group_name_H-M      'F m -3 m'
_symmetry_Int_Tables_number         225
_refine_ls_R_factor_all             0
loop_
_symmetry_equiv_pos_site_id
_symmetry_equiv_pos_as_xyz
1 x,y,z
2 -x,-y,z
3 x,-y,-z
4 -x,y,-z
5 z,x,y
6 y,z,x
7 -z,-x,y
8 -y,z,-x
9 z,-x,-y
10 -y,-z,x
11 -z,x,-y
12 y,-z,-x
13 -y,-x,-z
14 y,x,-z
15 y,-x,z
16 -y,x,z
17 -x,-z,-y
18 -z,-y,-x
19 x,z,-y
20 -z,y,x
21 x,-z,y
22 z,y,-x
23 -x,z,y
24 z,-y,x
25 -x,-y,-z
26 x,y,-z
27 -x,y,z
28 x,-y,z
29 -z,-x,-y
30 -y,-z,-x
31 z,x,-y
32 y,-z,x
33 -z,x,y
34 y,z,-x
35 z,-x,y
36 -y,z,x
37 y,x,z
38 -y,-x,z
39 -y,x,-z
40 y,-x,-z
41 x,z,y
42 z,y,x
43 -x,-z,y
44 z,-y,-x
45 -x,z,-y
46 -z,-y,x
47 x,-z,-y
48 -z,y,-x
49 x,1/2+y,1/2+z
50 1/2+x,y,1/2+z
51 1/2+x,1/2+y,z
52 -x,1/2-y,1/2+z
53 1/2-x,-y,1/2+z
54 1/2-x,1/2-y,z
55 x,1/2-y,1/2-z
56 1/2+x,-y,1/2-z
57 1/2+x,1/2-y,-z
58 -x,1/2+y,1/2-z
59 1/2-x,y,1/2-z
60 1/2-x,1/2+y,-z
61 z,1/2+x,1/2+y
62 1/2+z,x,1/2+y
63 1/2+z,1/2+x,y
64 y,1/2+z,1/2+x
65 1/2+y,z,1/2+x
66 1/2+y,1/2+z,x
67 -z,1/2-x,1/2+y
68 1/2-z,-x,1/2+y
69 1/2-z,1/2-x,y
70 -y,1/2+z,1/2-x
71 1/2-y,z,1/2-x
72 1/2-y,1/2+z,-x
73 z,1/2-x,1/2-y
74 1/2+z,-x,1/2-y
75 1/2+z,1/2-x,-y
76 -y,1/2-z,1/2+x
77 1/2-y,-z,1/2+x
78 1/2-y,1/2-z,x
79 -z,1/2+x,1/2-y
80 1/2-z,x,1/2-y
81 1/2-z,1/2+x,-y
82 y,1/2-z,1/2-x
83 1/2+y,-z,1/2-x
84 1/2+y,1/2-z,-x
85 -y,1/2-x,1/2-z
86 1/2-y,-x,1/2-z
87 1/2-y,1/2-x,-z
88 y,1/2+x,1/2-z
89 1/2+y,x,1/2-z
90 1/2+y,1/2+x,-z
91 y,1/2-x,1/2+z
92 1/2+y,-x,1/2+z
93 1/2+y,1/2-x,z
94 -y,1/2+x,1/2+z
95 1/2-y,x,1/2+z
96 1/2-y,1/2+x,z
97 -x,1/2-z,1/2-y
98 1/2-x,-z,1/2-y
99 1/2-x,1/2-z,-y
100 -z,1/2-y,1/2-x
101 1/2-z,-y,1/2-x
102 1/2-z,1/2-y,-x
103 x,1/2+z,1/2-y
104 1/2+x,z,1/2-y
105 1/2+x,1/2+z,-y
106 -z,1/2+y,1/2+x
107 1/2-z,y,1/2+x
108 1/2-z,1/2+y,x
109 x,1/2-z,1/2+y
110 1/2+x,-z,1/2+y
111 1/2+x,1/2-z,y
112 z,1/2+y,1/2-x
113 1/2+z,y,1/2-x
114 1/2+z,1/2+y,-x
115 -x,1/2+z,1/2+y
116 1/2-x,z,1/2+y
117 1/2-x,1/2+z,y
118 z,1/2-y,1/2+x
119 1/2+z,-y,1/2+x
120 1/2+z,1/2-y,x
121 -x,1/2-y,1/2-z
122 1/2-x,-y,1/2-z
123 1/2-x,1/2-y,-z
124 x,1/2+y,1/2-z
125 1/2+x,y,1/2-z
126 1/2+x,1/2+y,-z
127 -x,1/2+y,1/2+z
128 1/2-x,y,1/2+z
129 1/2-x,1/2+y,z
130 x,1/2-y,1/2+z
131 1/2+x,-y,1/2+z
132 1/2+x,1/2-y,z
133 -z,1/2-x,1/2-y
134 1/2-z,-x,1/2-y
135 1/2-z,1/2-x,-y
136 -y,1/2-z,1/2-x
137 1/2-y,-z,1/2-x
138 1/2-y,1/2-z,-x
139 z,1/2+x,1/2-y
140 1/2+z,x,1/2-y
141 1/2+z,1/2+x,-y
142 y,1/2-z,1/2+x
143 1/2+y,-z,1/2+x
144 1/2+y,1/2-z,x
145 -z,1/2+x,1/2+y
146 1/2-z,x,1/2+y
147 1/2-z,1/2+x,y
148 y,1/2+z,1/2-x
149 1/2+y,z,1/2-x
150 1/2+y,1/2+z,-x
151 z,1/2-x,1/2+y
152 1/2+z,-x,1/2+y
153 1/2+z,1/2-x,y
154 -y,1/2+z,1/2+x
155 1/2-y,z,1/2+x
156 1/2-y,1/2+z,x
157 y,1/2+x,1/2+z
158 1/2+y,x,1/2+z
159 1/2+y,1/2+x,z
160 -y,1/2-x,1/2+z
161 1/2-y,-x,1/2+z
162 1/2-y,1/2-x,z
163 -y,1/2+x,1/2-z
164 1/2-y,x,1/2-z
165 1/2-y,1/2+x,-z
166 y,1/2-x,1/2-z
167 1/2+y,-x,1/2-z
168 1/2+y,1/2-x,-z
169 x,1/2+z,1/2+y
170 1/2+x,z,1/2+y
171 1/2+x,1/2+z,y
172 z,1/2+y,1/2+x
173 1/2+z,y,1/2+x
174 1/2+z,1/2+y,x
175 -x,1/2-z,1/2+y
176 1/2-x,-z,1/2+y
177 1/2-x,1/2-z,y
178 z,1/2-y,1/2-x
179 1/2+z,-y,1/2-x
180 1/2+z,1/2-y,-x
181 -x,1/2+z,1/2-y
182 1/2-x,z,1/2-y
183 1/2-x,1/2+z,-y
184 -z,1/2-y,1/2+x
185 1/2-z,-y,1/2+x
186 1/2-z,1/2-y,x
187 x,1/2-z,1/2-y
188 1/2+x,-z,1/2-y
189 1/2+x,1/2-z,-y
190 -z,1/2+y,1/2-x
191 1/2-z,y,1/2-x
192 1/2-z,1/2+y,-x
loop_
_atom_site_label
_atom_site_type_symbol
_atom_site_symmetry_multiplicity
_atom_site_fract_x
_atom_site_fract_y
_atom_site_fract_z
_atom_site_occupancy
O1 O 192 0.06910 0.15080 0.23340 1.0000
O2 O 96 0.21120 0.21120 0.12530 1.0000
O3 O 96 0.20920 0.20920 0.40580 1.0000
O4 O 96 0.14870 0.14870 0.26470 1.0000
O5 O 96 0.14890 0.14890 0.05580 1.0000
O6 O 96 0.07730 0.07730 0.19040 1.0000
O7 O 96 0.11160 0.20190 0.00000 1.0000
Si1 Si 192 0.10930 0.17990 0.25010 1.0000
Si2 Si 192 0.05060 0.12220 0.19360 1.0000
Lr1 Lr 32 0.15095 0.15095 0.15095 1.0000
Lr2 Lr 4 0.00000 0.00000 0.50000 1.0000
Lr3 Lr 24 0.00000 0.25000 0.25000 1.0000
Lr4 Lr 8 0.25000 0.25000 0.25000 1.0000
Lr5 Lr 4 0.00000 0.00000 0.00000 1.0000
loop_
_topos_bond_atom_site_label_1
_topos_bond_atom_site_label_2
_topos_bond_site_symmetry_1
_topos_bond_site_symmetry_2
_topos_bond_distance
_topos_bond_type
_topos_bond_multiplicity
O1 Si1 1_0_0_0 1_0_0_0 1.6100 V 192
O1 Si2 1_0_0_0 1_0_0_0 1.6100 V 192
O2 Si1 1_0_0_0 6_0_0_0 1.6120 V 192
O3 Si1 1_0_0_0 191_0_0_0 1.6100 V 192
O4 Si1 1_0_0_0 1_0_0_0 1.6090 V 192
O5 Si2 1_0_0_0 6_0_0_0 1.6090 V 192
O6 Si2 1_0_0_0 1_0_0_0 1.6090 V 192
O7 Si2 1_0_0_0 6_0_0_0 1.6100 V 192
Lr2 Lr3 1_0_0_0 1_0_0_0 10.8690 V 48
Lr2 Lr5 1_0_0_0 50_0_0_0 15.3710 V 24
#End of data_234-TOPOS_TSC-PPT1

data_235-TOPOS_TUN-PPT1
_audit_creation_date                2025-02-23
_audit_creation_method              ToposPro
_chemical_formula_structural        TUN-PPT1
_chemical_formula_sum               'Lr7 O32 Si16'
_citation_special_details
;
Space Group: C2/M->C 2/m. File: TUN-PPT1.cif. 
;
_cell_length_a                      27.845
_cell_length_b                      20.015
_cell_length_c                      19.596
_cell_angle_alpha                   90
_cell_angle_beta                    93.2
_cell_angle_gamma                   90
_cell_volume                        10904.17
_cell_formula_units_Z               12
_symmetry_space_group_name_H-M      'C 2/m'
_symmetry_Int_Tables_number         12
_refine_ls_R_factor_all             0
loop_
_symmetry_equiv_pos_site_id
_symmetry_equiv_pos_as_xyz
1 x,y,z
2 -x,y,-z
3 -x,-y,-z
4 x,-y,z
5 1/2+x,1/2+y,z
6 1/2-x,1/2+y,-z
7 1/2-x,1/2-y,-z
8 1/2+x,1/2-y,z
loop_
_atom_site_label
_atom_site_type_symbol
_atom_site_symmetry_multiplicity
_atom_site_fract_x
_atom_site_fract_y
_atom_site_fract_z
_atom_site_occupancy
O1 O 8 0.04470 0.09120 0.89880 1.0000
O2 O 8 0.08740 0.20440 0.93460 1.0000
O3 O 8 0.13550 0.11030 0.87470 1.0000
O4 O 8 0.11020 0.09340 0.00060 1.0000
O5 O 8 0.12220 0.19900 0.63810 1.0000
O6 O 8 0.12720 0.24580 0.76280 1.0000
O7 O 8 0.11720 0.11690 0.74190 1.0000
O8 O 8 0.04500 0.19790 0.71040 1.0000
O9 O 8 0.04930 0.09420 0.09890 1.0000
O10 O 8 0.14050 0.12280 0.12630 1.0000
O11 O 8 0.20260 0.07800 0.79140 1.0000
O12 O 8 0.13990 0.30060 0.88340 1.0000
O13 O 8 0.11600 0.30680 0.01110 1.0000
O14 O 8 0.05070 0.32340 0.91020 1.0000
O15 O 8 0.20720 0.20660 0.17360 1.0000
O16 O 8 0.29750 0.17730 0.20850 1.0000
O17 O 8 0.23720 0.20240 0.30310 1.0000
O18 O 8 0.26640 0.29940 0.22500 1.0000
O19 O 8 0.04230 0.31090 0.08930 1.0000
O20 O 8 0.99550 0.25120 0.18500 1.0000
O21 O 8 0.00380 0.38240 0.18540 1.0000
O22 O 8 0.12190 0.25150 0.13300 1.0000
O23 O 8 0.13220 0.18130 0.24550 1.0000
O24 O 8 0.11890 0.38260 0.12110 1.0000
O25 O 8 0.00770 0.12390 0.21220 1.0000
O26 O 8 0.12160 0.40270 0.64340 1.0000
O27 O 8 0.04010 0.41700 0.70390 1.0000
O28 O 8 0.11670 0.37600 0.77530 1.0000
O29 O 8 0.13380 0.42280 0.24870 1.0000
O30 O 8 0.20710 0.39140 0.17560 1.0000
O31 O 8 0.23770 0.39600 0.30450 1.0000
O32 O 8 0.16940 0.29890 0.44580 1.0000
O33 O 8 0.22060 0.40820 0.43450 1.0000
O34 O 8 0.14830 0.40600 0.51570 1.0000
O35 O 8 0.13200 0.40230 0.38130 1.0000
O36 O 8 0.05260 0.39210 0.30360 1.0000
O37 O 8 0.12010 0.30170 0.29460 1.0000
O38 O 8 0.19180 0.11870 0.60270 1.0000
O39 O 8 0.04920 0.21420 0.29360 1.0000
O40 O 8 0.21120 0.37900 0.61690 1.0000
O41 O 8 0.28400 0.31280 0.57020 1.0000
O42 O 8 0.20440 0.24890 0.59920 1.0000
O43 O 8 0.14420 0.19100 0.51030 1.0000
O44 O 8 0.12660 0.19960 0.37740 1.0000
O45 O 4 0.11500 0.00000 0.09520 1.0000
O46 O 4 0.12750 0.00000 0.80220 1.0000
O47 O 4 0.00730 0.00000 0.16760 1.0000
O48 O 4 0.22880 0.00000 0.62610 1.0000
O49 O 4 0.11150 0.50000 0.73130 1.0000
O50 O 4 0.15720 0.50000 0.14750 1.0000
O51 O 4 0.01990 0.50000 0.24080 1.0000
O52 O 4 0.17650 0.50000 0.60270 1.0000
Si1 Si 8 0.10260 0.19000 0.71330 1.0000
Si2 Si 8 0.99780 0.31690 0.13810 1.0000
Si3 Si 8 0.15050 0.19020 0.16950 1.0000
Si4 Si 8 0.09430 0.12500 0.92730 1.0000
Si5 Si 8 0.10000 0.31290 0.08850 1.0000
Si6 Si 8 0.00480 0.07740 0.14510 1.0000
Si7 Si 8 0.09770 0.42360 0.71330 1.0000
Si8 Si 8 0.15410 0.42390 0.17340 1.0000
Si9 Si 8 0.10360 0.07760 0.08010 1.0000
Si10 Si 8 0.25230 0.37720 0.22850 1.0000
Si11 Si 8 0.14570 0.07640 0.80250 1.0000
Si12 Si 8 0.16750 0.37920 0.44470 1.0000
Si13 Si 8 0.10980 0.37970 0.30730 1.0000
Si14 Si 8 0.24080 0.07850 0.62210 1.0000
Si15 Si 8 0.00880 0.42270 0.25640 1.0000
Si16 Si 8 0.00210 0.19690 0.24540 1.0000
Si17 Si 8 0.24020 0.30940 0.62040 1.0000
Si18 Si 8 0.14630 0.31150 0.80300 1.0000
Si19 Si 8 0.16380 0.21910 0.44000 1.0000
Si20 Si 8 0.10650 0.22400 0.30290 1.0000
Si21 Si 8 0.16400 0.42180 0.59430 1.0000
Si22 Si 8 0.09870 0.28330 0.93510 1.0000
Si23 Si 8 0.16580 0.18960 0.58840 1.0000
Si24 Si 8 0.25180 0.22170 0.22720 1.0000
Lr1 Lr 8 0.19246 0.30420 0.29592 1.0000
Lr2 Lr 8 0.07286 0.19717 0.83157 1.0000
Lr3 Lr 8 0.22124 0.19799 0.94508 1.0000
Lr4 Lr 8 0.19216 0.19456 0.71175 1.0000
Lr5 Lr 8 0.07870 0.30840 0.21019 1.0000
Lr6 Lr 8 0.23230 0.30250 0.49077 1.0000
Lr7 Lr 4 0.08470 0.00000 0.91620 1.0000
Lr8 Lr 4 0.26335 0.00000 0.02407 1.0000
Lr9 Lr 4 0.08431 0.50000 0.90269 1.0000
Lr10 Lr 4 0.23461 0.50000 0.75060 1.0000
Lr11 Lr 4 0.25497 0.50000 0.24432 1.0000
Lr12 Lr 2 0.00000 0.00000 0.00000 1.0000
Lr13 Lr 2 0.00000 0.00000 0.50000 1.0000
Lr14 Lr 2 0.00000 0.50000 0.50000 1.0000
Lr15 Lr 4 0.00000 0.30307 0.50000 1.0000
Lr16 Lr 2 0.00000 0.50000 0.00000 1.0000
Lr17 Lr 4 0.00000 0.20047 0.00000 1.0000
loop_
_topos_bond_atom_site_label_1
_topos_bond_atom_site_label_2
_topos_bond_site_symmetry_1
_topos_bond_site_symmetry_2
_topos_bond_distance
_topos_bond_type
_topos_bond_multiplicity
O1 Si4 1_0_0_0 1_0_0_0 1.6100 V 8
O1 Si6 1_0_0_0 2_0_0_1 1.6070 V 8
O2 Si4 1_0_0_0 1_0_0_0 1.6080 V 8
O2 Si22 1_0_0_0 1_0_0_0 1.6100 V 8
O3 Si11 1_0_0_0 1_0_0_0 1.6090 V 8
O3 Si4 1_0_0_0 1_0_0_0 1.6120 V 8
O4 Si9 1_0_0_0 1_0_0_0 1.6100 V 8
O4 Si4 1_0_0_0 1_0_0_-1 1.6090 V 8
O5 Si23 1_0_0_0 1_0_0_0 1.6090 V 8
O5 Si1 1_0_0_0 1_0_0_0 1.6100 V 8
O6 Si1 1_0_0_0 1_0_0_0 1.6070 V 8
O6 Si18 1_0_0_0 1_0_0_0 1.6080 V 8
O7 Si11 1_0_0_0 1_0_0_0 1.6100 V 8
O7 Si1 1_0_0_0 1_0_0_0 1.6110 V 8
O8 Si1 1_0_0_0 1_0_0_0 1.6090 V 8
O8 Si16 1_0_0_0 2_0_0_1 1.6120 V 8
O9 Si6 1_0_0_0 1_0_0_0 1.6100 V 8
O9 Si9 1_0_0_0 1_0_0_0 1.6110 V 8
O10 Si3 1_0_0_0 1_0_0_0 1.6090 V 8
O10 Si9 1_0_0_0 1_0_0_0 1.6090 V 8
O11 Si11 1_0_0_0 1_0_0_0 1.6120 V 8
O11 Si10 1_0_0_0 7_0_0_1 1.6090 V 8
O12 Si22 1_0_0_0 1_0_0_0 1.6100 V 8
O12 Si18 1_0_0_0 1_0_0_0 1.6100 V 8
O13 Si5 1_0_0_0 1_0_0_0 1.6090 V 8
O13 Si22 1_0_0_0 1_0_0_-1 1.6100 V 8
O14 Si22 1_0_0_0 1_0_0_0 1.6110 V 8
O14 Si2 1_0_0_0 2_1_0_1 1.6110 V 8
O15 Si24 1_0_0_0 1_0_0_0 1.6100 V 8
O15 Si3 1_0_0_0 1_0_0_0 1.6100 V 8
O16 Si24 1_0_0_0 1_0_0_0 1.6110 V 8
O16 Si18 1_0_0_0 7_0_0_1 1.6090 V 8
O17 Si24 1_0_0_0 1_0_0_0 1.6110 V 8
O17 Si17 1_0_0_0 7_0_0_1 1.6110 V 8
O18 Si10 1_0_0_0 1_0_0_0 1.6080 V 8
O18 Si24 1_0_0_0 1_0_0_0 1.6090 V 8
O19 Si5 1_0_0_0 1_0_0_0 1.6080 V 8
O19 Si2 1_0_0_0 1_-1_0_0 1.6110 V 8
O20 Si2 1_0_0_0 1_0_0_0 1.6080 V 8
O20 Si16 1_0_0_0 1_1_0_0 1.6100 V 8
O21 Si15 1_0_0_0 1_0_0_0 1.6080 V 8
O21 Si2 1_0_0_0 1_-1_0_0 1.6090 V 8
O22 Si5 1_0_0_0 1_0_0_0 1.6070 V 8
O22 Si3 1_0_0_0 1_0_0_0 1.6090 V 8
O23 Si3 1_0_0_0 1_0_0_0 1.6110 V 8
O23 Si20 1_0_0_0 1_0_0_0 1.6120 V 8
O24 Si8 1_0_0_0 1_0_0_0 1.6070 V 8
O24 Si5 1_0_0_0 1_0_0_0 1.6100 V 8
O25 Si6 1_0_0_0 1_0_0_0 1.6090 V 8
O25 Si16 1_0_0_0 1_0_0_0 1.6100 V 8
O26 Si21 1_0_0_0 1_0_0_0 1.6100 V 8
O26 Si7 1_0_0_0 1_0_0_0 1.6110 V 8
O27 Si7 1_0_0_0 1_0_0_0 1.6100 V 8
O27 Si15 1_0_0_0 2_0_0_1 1.6100 V 8
O28 Si18 1_0_0_0 1_0_0_0 1.6100 V 8
O28 Si7 1_0_0_0 1_0_0_0 1.6100 V 8
O29 Si8 1_0_0_0 1_0_0_0 1.6090 V 8
O29 Si13 1_0_0_0 1_0_0_0 1.6110 V 8
O30 Si10 1_0_0_0 1_0_0_0 1.6110 V 8
O30 Si8 1_0_0_0 1_0_0_0 1.6110 V 8
O31 Si10 1_0_0_0 1_0_0_0 1.6100 V 8
O31 Si14 1_0_0_0 7_0_0_1 1.6100 V 8
O32 Si12 1_0_0_0 1_0_0_0 1.6080 V 8
O32 Si19 1_0_0_0 1_0_0_0 1.6080 V 8
O33 Si12 1_0_0_0 1_0_0_0 1.6110 V 8
O33 Si14 1_0_0_0 7_0_0_1 1.6090 V 8
O34 Si21 1_0_0_0 1_0_0_0 1.6090 V 8
O34 Si12 1_0_0_0 1_0_0_0 1.6100 V 8
O35 Si13 1_0_0_0 1_0_0_0 1.6090 V 8
O35 Si12 1_0_0_0 1_0_0_0 1.6120 V 8
O36 Si13 1_0_0_0 1_0_0_0 1.6100 V 8
O36 Si15 1_0_0_0 1_0_0_0 1.6100 V 8
O37 Si13 1_0_0_0 1_0_0_0 1.6090 V 8
O37 Si20 1_0_0_0 1_0_0_0 1.6110 V 8
O38 Si23 1_0_0_0 1_0_0_0 1.6110 V 8
O38 Si14 1_0_0_0 1_0_0_0 1.6110 V 8
O39 Si20 1_0_0_0 1_0_0_0 1.6080 V 8
O39 Si16 1_0_0_0 1_0_0_0 1.6110 V 8
O40 Si17 1_0_0_0 1_0_0_0 1.6100 V 8
O40 Si21 1_0_0_0 1_0_0_0 1.6100 V 8
O41 Si17 1_0_0_0 1_0_0_0 1.6110 V 8
O41 Si19 1_0_0_0 7_0_0_1 1.6100 V 8
O42 Si23 1_0_0_0 1_0_0_0 1.6070 V 8
O42 Si17 1_0_0_0 1_0_0_0 1.6080 V 8
O43 Si19 1_0_0_0 1_0_0_0 1.6110 V 8
O43 Si23 1_0_0_0 1_0_0_0 1.6130 V 8
O44 Si19 1_0_0_0 1_0_0_0 1.6090 V 8
O44 Si20 1_0_0_0 1_0_0_0 1.6100 V 8
O45 Si9 1_0_0_0 1_0_0_0 1.6090 V 8
O46 Si11 1_0_0_0 1_0_0_0 1.6110 V 8
O47 Si6 1_0_0_0 1_0_0_0 1.6110 V 8
O48 Si14 1_0_0_0 1_0_0_0 1.6090 V 8
O49 Si7 1_0_0_0 1_0_0_0 1.6110 V 8
O50 Si8 1_0_0_0 1_0_0_0 1.6090 V 8
O51 Si15 1_0_0_0 1_0_0_0 1.6100 V 8
O52 Si21 1_0_0_0 1_0_0_0 1.6100 V 8
Lr3 Lr3 1_0_0_0 7_0_0_2 3.3390 V 4
Lr3 Lr8 1_0_0_0 1_0_0_1 4.3900 V 8
Lr6 Lr6 1_0_0_0 7_0_0_1 2.3410 V 4
Lr7 Lr12 1_0_0_0 1_0_0_1 2.9480 V 4
Lr8 Lr9 1_0_0_0 6_0_-1_1 4.4020 V 4
Lr8 Lr10 1_0_0_0 6_0_-1_1 4.4130 V 4
Lr9 Lr16 1_0_0_0 1_0_0_1 3.1060 V 4
Lr10 Lr13 1_0_0_0 5_0_0_0 9.0980 V 4
Lr13 Lr15 1_0_0_0 1_0_0_0 6.0660 V 4
Lr14 Lr15 1_0_0_0 1_0_0_0 3.9420 V 4
#End of data_235-TOPOS_TUN-PPT1

data_236-TOPOS_UEI-PPT1
_audit_creation_date                2025-02-23
_audit_creation_method              ToposPro
_chemical_formula_structural        UEI-PPT1
_chemical_formula_sum               'Lr1 O12 Si6'
_citation_special_details
;
Space Group: FMM2->F m m 2. File: UEI-PPT1.cif. 
;
_cell_length_a                      19.46
_cell_length_b                      9.351
_cell_length_c                      15.107
_cell_angle_alpha                   90
_cell_angle_beta                    90
_cell_angle_gamma                   90
_cell_volume                        2749.028
_cell_formula_units_Z               8
_symmetry_space_group_name_H-M      'F m m 2'
_symmetry_Int_Tables_number         42
_refine_ls_R_factor_all             0
loop_
_symmetry_equiv_pos_site_id
_symmetry_equiv_pos_as_xyz
1 x,y,z
2 -x,-y,z
3 -x,y,z
4 x,-y,z
5 x,1/2+y,1/2+z
6 1/2+x,y,1/2+z
7 1/2+x,1/2+y,z
8 -x,1/2-y,1/2+z
9 1/2-x,-y,1/2+z
10 1/2-x,1/2-y,z
11 -x,1/2+y,1/2+z
12 1/2-x,y,1/2+z
13 1/2-x,1/2+y,z
14 x,1/2-y,1/2+z
15 1/2+x,-y,1/2+z
16 1/2+x,1/2-y,z
loop_
_atom_site_label
_atom_site_type_symbol
_atom_site_symmetry_multiplicity
_atom_site_fract_x
_atom_site_fract_y
_atom_site_fract_z
_atom_site_occupancy
O1 O 16 0.66420 0.71640 0.23840 1.0000
O2 O 16 0.61610 0.79330 0.90450 1.0000
O3 O 16 0.61600 0.77020 0.57520 1.0000
O4 O 8 0.75000 0.75000 0.10400 1.0000
O5 O 8 0.75000 0.75000 0.87510 1.0000
O6 O 8 0.69630 0.00000 0.84300 1.0000
O7 O 8 0.68670 0.00000 0.62680 1.0000
O8 O 8 0.59630 0.00000 0.02330 1.0000
O9 O 8 0.50000 0.80250 0.99560 1.0000
Si1 Si 16 0.67930 0.82750 0.63600 1.0000
Si2 Si 16 0.68070 0.67060 0.34010 1.0000
Si3 Si 16 0.58220 0.83270 0.00000 1.0000
Lr1 Lr 4 0.50000 0.00000 0.74402 1.0000
Lr2 Lr 4 0.00000 0.00000 0.85824 1.0000
loop_
_topos_bond_atom_site_label_1
_topos_bond_atom_site_label_2
_topos_bond_site_symmetry_1
_topos_bond_site_symmetry_2
_topos_bond_distance
_topos_bond_type
_topos_bond_multiplicity
O1 Si2 1_0_0_0 1_0_0_0 1.6270 V 16
O1 Si1 1_0_0_0 14_0_1_-1 1.6270 V 16
O2 Si2 1_0_0_0 14_0_1_0 1.6250 V 16
O2 Si3 1_0_0_0 1_0_0_1 1.6290 V 16
O3 Si1 1_0_0_0 1_0_0_0 1.6270 V 16
O3 Si3 1_0_0_0 14_0_1_0 1.6280 V 16
O4 Si1 1_0_0_0 14_0_1_-1 1.6280 V 16
O5 Si2 1_0_0_0 14_0_1_0 1.6280 V 16
O6 Si2 1_0_0_0 5_0_-1_0 1.6240 V 16
O7 Si1 1_0_0_0 1_0_-1_0 1.6250 V 16
O8 Si3 1_0_0_0 1_0_-1_0 1.6270 V 16
O9 Si3 1_0_0_0 1_0_0_1 1.6260 V 16
Lr1 Lr2 1_0_0_0 6_0_0_-1 5.8280 V 4
Lr1 Lr2 1_0_0_0 7_0_0_0 4.9840 V 8
#End of data_236-TOPOS_UEI-PPT1

data_237-TOPOS_UFI-PPT1
_audit_creation_date                2025-02-23
_audit_creation_method              ToposPro
_chemical_formula_structural        UFI-PPT1
_chemical_formula_sum               'Lr1 O16 Si8'
_citation_special_details
;
Space Group: I4/MMM->I 4/m m m. File: UFI-PPT1.cif. 
;
_cell_length_a                      12.125
_cell_length_b                      12.125
_cell_length_c                      28.636
_cell_angle_alpha                   90
_cell_angle_beta                    90
_cell_angle_gamma                   90
_cell_volume                        4209.939
_cell_formula_units_Z               8
_symmetry_space_group_name_H-M      'I 4/m m m'
_symmetry_Int_Tables_number         139
_refine_ls_R_factor_all             0
loop_
_symmetry_equiv_pos_site_id
_symmetry_equiv_pos_as_xyz
1 x,y,z
2 -x,-y,z
3 x,-y,-z
4 -x,y,-z
5 -y,-x,-z
6 y,x,-z
7 y,-x,z
8 -y,x,z
9 -x,-y,-z
10 x,y,-z
11 -x,y,z
12 x,-y,z
13 y,x,z
14 -y,-x,z
15 -y,x,-z
16 y,-x,-z
17 1/2+x,1/2+y,1/2+z
18 1/2-x,1/2-y,1/2+z
19 1/2+x,1/2-y,1/2-z
20 1/2-x,1/2+y,1/2-z
21 1/2-y,1/2-x,1/2-z
22 1/2+y,1/2+x,1/2-z
23 1/2+y,1/2-x,1/2+z
24 1/2-y,1/2+x,1/2+z
25 1/2-x,1/2-y,1/2-z
26 1/2+x,1/2+y,1/2-z
27 1/2-x,1/2+y,1/2+z
28 1/2+x,1/2-y,1/2+z
29 1/2+y,1/2+x,1/2+z
30 1/2-y,1/2-x,1/2+z
31 1/2-y,1/2+x,1/2-z
32 1/2+y,1/2-x,1/2-z
loop_
_atom_site_label
_atom_site_type_symbol
_atom_site_symmetry_multiplicity
_atom_site_fract_x
_atom_site_fract_y
_atom_site_fract_z
_atom_site_occupancy
O1 O 32 0.34290 0.10800 0.15870 1.0000
O2 O 16 0.29470 0.00000 0.08260 1.0000
O3 O 8 0.20390 0.00000 0.00000 1.0000
O4 O 16 0.10840 0.10840 0.06820 1.0000
O5 O 16 0.29460 0.29460 0.20140 1.0000
O6 O 16 0.37220 0.12780 0.25000 1.0000
O7 O 16 0.50000 0.23390 0.19160 1.0000
O8 O 8 0.50000 0.00000 0.11380 1.0000
Si1 Si 32 0.37620 0.19030 0.20050 1.0000
Si2 Si 16 0.17880 0.00000 0.05520 1.0000
Si3 Si 16 0.37180 0.00000 0.12840 1.0000
Lr1 Lr 4 0.50000 0.00000 0.25000 1.0000
Lr2 Lr 2 0.50000 0.50000 0.00000 1.0000
Lr3 Lr 2 0.00000 0.00000 0.00000 1.0000
loop_
_topos_bond_atom_site_label_1
_topos_bond_atom_site_label_2
_topos_bond_site_symmetry_1
_topos_bond_site_symmetry_2
_topos_bond_distance
_topos_bond_type
_topos_bond_multiplicity
O1 Si3 1_0_0_0 1_0_0_0 1.6090 V 32
O1 Si1 1_0_0_0 1_0_0_0 1.6100 V 32
O2 Si2 1_0_0_0 1_0_0_0 1.6090 V 16
O2 Si3 1_0_0_0 1_0_0_0 1.6110 V 16
O3 Si2 1_0_0_0 1_0_0_0 1.6100 V 16
O4 Si2 1_0_0_0 1_0_0_0 1.6110 V 32
O5 Si1 1_0_0_0 1_0_0_0 1.6060 V 32
O6 Si1 1_0_0_0 1_0_0_0 1.6080 V 32
O7 Si1 1_0_0_0 1_0_0_0 1.6120 V 32
O8 Si3 1_0_0_0 1_0_0_0 1.6100 V 16
Lr2 Lr2 1_0_0_0 1_1_0_0 12.1250 V 4
#End of data_237-TOPOS_UFI-PPT1

data_238-TOPOS_UOS-PPT1
_audit_creation_date                2025-02-23
_audit_creation_method              ToposPro
_chemical_formula_structural        UOS-PPT1
_chemical_formula_sum               'Lr1 O4 Si2'
_citation_special_details
;
Space Group: PMMA->P m m a. File: UOS-PPT1.cif. 
;
_cell_length_a                      19.905
_cell_length_b                      7.546
_cell_length_c                      9.068
_cell_angle_alpha                   90
_cell_angle_beta                    90
_cell_angle_gamma                   90
_cell_volume                        1362.042
_cell_formula_units_Z               12
_symmetry_space_group_name_H-M      'P m m a'
_symmetry_Int_Tables_number         51
_refine_ls_R_factor_all             0
loop_
_symmetry_equiv_pos_site_id
_symmetry_equiv_pos_as_xyz
1 x,y,z
2 1/2-x,-y,z
3 1/2+x,-y,-z
4 -x,y,-z
5 -x,-y,-z
6 1/2+x,y,-z
7 1/2-x,y,z
8 x,-y,z
loop_
_atom_site_label
_atom_site_type_symbol
_atom_site_symmetry_multiplicity
_atom_site_fract_x
_atom_site_fract_y
_atom_site_fract_z
_atom_site_occupancy
O1 O 8 0.97670 0.26570 0.31960 1.0000
O2 O 8 0.09570 0.22280 0.44080 1.0000
O3 O 8 0.08600 0.32590 0.16480 1.0000
O4 O 8 0.15360 0.32580 0.68680 1.0000
O5 O 4 0.05350 0.00000 0.23790 1.0000
O6 O 4 0.10830 0.00000 0.66190 1.0000
O7 O 2 0.00000 0.50000 0.00000 1.0000
O8 O 4 0.12830 0.50000 0.93160 1.0000
O9 O 2 0.75000 0.50000 0.17720 1.0000
Si1 Si 8 0.05290 0.20360 0.29090 1.0000
Si2 Si 8 0.09520 0.20370 0.61760 1.0000
Si3 Si 4 0.07510 0.50000 0.06500 1.0000
Si4 Si 4 0.67140 0.50000 0.21840 1.0000
Lr1 Lr 4 0.95557 0.00000 0.10013 1.0000
Lr2 Lr 2 0.00000 0.00000 0.50000 1.0000
Lr3 Lr 2 0.25000 0.00000 0.19238 1.0000
Lr4 Lr 2 0.00000 0.50000 0.50000 1.0000
Lr5 Lr 2 0.25000 0.50000 0.34931 1.0000
loop_
_topos_bond_atom_site_label_1
_topos_bond_atom_site_label_2
_topos_bond_site_symmetry_1
_topos_bond_site_symmetry_2
_topos_bond_distance
_topos_bond_type
_topos_bond_multiplicity
O1 Si1 1_0_0_0 1_1_0_0 1.6090 V 8
O1 Si2 1_0_0_0 4_1_0_1 1.6100 V 8
O2 Si2 1_0_0_0 1_0_0_0 1.6100 V 8
O2 Si1 1_0_0_0 1_0_0_0 1.6110 V 8
O3 Si3 1_0_0_0 1_0_0_0 1.6100 V 8
O3 Si1 1_0_0_0 1_0_0_0 1.6100 V 8
O4 Si2 1_0_0_0 1_0_0_0 1.6110 V 8
O4 Si4 1_0_0_0 3_-1_1_1 1.6100 V 8
O5 Si1 1_0_0_0 1_0_0_0 1.6100 V 8
O6 Si2 1_0_0_0 1_0_0_0 1.6100 V 8
O7 Si3 1_0_0_0 1_0_0_0 1.6070 V 4
O8 Si3 1_0_0_0 1_0_0_1 1.6080 V 4
O8 Si4 1_0_0_0 3_-1_1_1 1.6080 V 4
O9 Si4 1_0_0_0 1_0_0_0 1.6090 V 4
Lr1 Lr3 1_0_0_0 3_0_0_0 4.8760 V 4
Lr1 Lr1 1_0_0_0 4_2_0_0 2.5350 V 2
Lr3 Lr5 1_0_0_0 1_0_0_0 4.0320 V 4
Lr3 Lr3 1_0_0_0 1_0_0_1 9.0680 V 2
#End of data_238-TOPOS_UOS-PPT1

data_239-TOPOS_UOV-NT
_audit_creation_date                2025-02-23
_audit_creation_method              ToposPro
_chemical_formula_structural        UOV-NT
_chemical_formula_sum               'Lr23 O88 Si44'
_citation_special_details
;
Space Group: AMM2->A m m 2. File: UOV-NT.cif. 
;
_cell_length_a                      12.7177
_cell_length_b                      21.9893
_cell_length_c                      38.7639
_cell_angle_alpha                   90
_cell_angle_beta                    90
_cell_angle_gamma                   90
_cell_volume                        10840.45
_cell_formula_units_Z               4
_symmetry_space_group_name_H-M      'A m m 2'
_symmetry_Int_Tables_number         38
_refine_ls_R_factor_all             0
loop_
_symmetry_equiv_pos_site_id
_symmetry_equiv_pos_as_xyz
1 x,y,z
2 -x,-y,z
3 -x,y,z
4 x,-y,z
5 x,1/2+y,1/2+z
6 -x,1/2-y,1/2+z
7 -x,1/2+y,1/2+z
8 x,1/2-y,1/2+z
loop_
_atom_site_label
_atom_site_type_symbol
_atom_site_symmetry_multiplicity
_atom_site_fract_x
_atom_site_fract_y
_atom_site_fract_z
_atom_site_occupancy
O1 O 8 0.17169 0.32645 0.80187 1.0000
O2 O 8 0.10350 0.40757 0.84579 1.0000
O3 O 8 0.30524 0.38544 0.84140 1.0000
O4 O 8 0.17753 0.30359 0.86875 1.0000
O5 O 8 0.30648 0.38616 0.96608 1.0000
O6 O 8 0.10363 0.40865 0.96315 1.0000
O7 O 8 0.17449 0.32354 0.00413 1.0000
O8 O 8 0.17861 0.30783 0.93652 1.0000
O9 O 8 0.37076 0.41266 0.90343 1.0000
O10 O 8 0.14166 0.20503 0.90546 1.0000
O11 O 8 0.18342 0.20898 0.79429 1.0000
O12 O 8 0.13742 0.27839 0.74061 1.0000
O13 O 8 0.11876 0.27630 0.06384 1.0000
O14 O 8 0.18483 0.20598 0.01390 1.0000
O15 O 8 0.13670 0.08592 0.90099 1.0000
O16 O 8 0.19702 0.13692 0.95907 1.0000
O17 O 8 0.18807 0.11572 0.83756 1.0000
O18 O 8 0.10366 0.10367 0.77614 1.0000
O19 O 8 0.30847 0.11652 0.78289 1.0000
O20 O 8 0.18592 0.20365 0.69039 1.0000
O21 O 8 0.16968 0.32088 0.67803 1.0000
O22 O 8 0.30903 0.11220 0.01435 1.0000
O23 O 8 0.10334 0.09608 0.01555 1.0000
O24 O 8 0.18174 0.19793 0.11146 1.0000
O25 O 8 0.18012 0.31486 0.12389 1.0000
O26 O 8 0.37463 0.08245 0.72174 1.0000
O27 O 8 0.30659 0.11776 0.66170 1.0000
O28 O 8 0.10341 0.10300 0.66538 1.0000
O29 O 8 0.30428 0.38541 0.64069 1.0000
O30 O 8 0.10289 0.40395 0.63411 1.0000
O31 O 8 0.36774 0.08874 0.07860 1.0000
O32 O 4 0.00000 0.29268 0.90321 1.0000
O33 O 4 0.00000 0.26308 0.79079 1.0000
O34 O 4 0.00000 0.25958 0.00917 1.0000
O35 O 4 0.00000 0.14317 0.93989 1.0000
O36 O 4 0.00000 0.25645 0.69143 1.0000
O37 O 4 0.00000 0.25554 0.11776 1.0000
O38 O 4 0.00000 0.07347 0.85050 1.0000
O39 O 4 0.00000 0.39604 0.90438 1.0000
O40 O 4 0.00000 0.07010 0.72109 1.0000
O41 O 4 0.00000 0.09814 0.07469 1.0000
O42 O 4 0.34405 0.50000 0.85782 1.0000
O43 O 4 0.34209 0.50000 0.94878 1.0000
O44 O 4 0.34618 0.50000 0.62375 1.0000
O45 O 4 0.50000 0.42252 0.85095 1.0000
O46 O 4 0.50000 0.42395 0.95597 1.0000
O47 O 4 0.50000 0.07434 0.77537 1.0000
O48 O 4 0.50000 0.07352 0.02706 1.0000
O49 O 4 0.50000 0.07674 0.66827 1.0000
O50 O 4 0.50000 0.42099 0.63016 1.0000
O51 O 4 0.16204 0.00000 0.85450 1.0000
O52 O 4 0.33959 0.00000 0.76946 1.0000
O53 O 4 0.33878 0.00000 0.03444 1.0000
O54 O 4 0.34277 0.00000 0.67370 1.0000
O55 O 2 0.00000 0.50000 0.87191 1.0000
O56 O 2 0.00000 0.50000 0.93637 1.0000
O57 O 2 0.00000 0.50000 0.61300 1.0000
O58 O 2 0.00000 0.00000 0.77595 1.0000
O59 O 2 0.00000 0.00000 0.03638 1.0000
O60 O 2 0.00000 0.00000 0.66622 1.0000
Si1 Si 8 0.19001 0.35523 0.83960 1.0000
Si2 Si 8 0.19102 0.35623 0.96737 1.0000
Si3 Si 8 0.37979 0.43039 0.86324 1.0000
Si4 Si 8 0.12371 0.27744 0.90330 1.0000
Si5 Si 8 0.12285 0.26918 0.78151 1.0000
Si6 Si 8 0.37977 0.43070 0.94355 1.0000
Si7 Si 8 0.11908 0.26648 0.02272 1.0000
Si8 Si 8 0.11973 0.14307 0.92637 1.0000
Si9 Si 8 0.19547 0.13640 0.79779 1.0000
Si10 Si 8 0.12295 0.26494 0.70006 1.0000
Si11 Si 8 0.19764 0.13707 0.00060 1.0000
Si12 Si 8 0.11961 0.26052 0.10436 1.0000
Si13 Si 8 0.12221 0.06862 0.86091 1.0000
Si14 Si 8 0.38016 0.06827 0.76241 1.0000
Si15 Si 8 0.19531 0.15260 0.66077 1.0000
Si16 Si 8 0.19086 0.35282 0.64129 1.0000
Si17 Si 8 0.37886 0.06903 0.03879 1.0000
Si18 Si 8 0.38016 0.06883 0.68099 1.0000
Si19 Si 8 0.37926 0.42986 0.61861 1.0000
Si20 Si 4 0.00000 0.42746 0.86681 1.0000
Si21 Si 4 0.00000 0.42757 0.94192 1.0000
Si22 Si 4 0.00000 0.06933 0.76258 1.0000
Si23 Si 4 0.00000 0.07307 0.03564 1.0000
Si24 Si 4 0.00000 0.06931 0.67963 1.0000
Si25 Si 4 0.00000 0.42694 0.61374 1.0000
Lr1 Lr 8 0.17461 0.13736 0.72822 1.0000
Lr2 Lr 8 0.17316 0.13707 0.07197 1.0000
Lr3 Lr 4 0.00000 0.23844 0.96819 1.0000
Lr4 Lr 4 0.00000 0.21405 0.84631 1.0000
Lr5 Lr 4 0.00000 0.17849 0.73225 1.0000
Lr6 Lr 4 0.00000 0.17686 0.06873 1.0000
Lr7 Lr 4 0.00000 0.25159 0.65063 1.0000
Lr8 Lr 4 0.00000 0.35410 0.90366 1.0000
Lr9 Lr 4 0.18061 0.50000 0.90368 1.0000
Lr10 Lr 4 0.17322 0.50000 0.74061 1.0000
Lr11 Lr 4 0.17312 0.50000 0.06266 1.0000
Lr12 Lr 4 0.50000 0.25142 0.65101 1.0000
Lr13 Lr 4 0.19185 0.00000 0.72403 1.0000
Lr14 Lr 4 0.19110 0.00000 0.07478 1.0000
Lr15 Lr 4 0.17446 0.00000 0.79592 1.0000
Lr16 Lr 4 0.16369 0.00000 0.97246 1.0000
Lr17 Lr 2 0.00000 0.50000 0.74055 1.0000
Lr18 Lr 2 0.00000 0.50000 0.06320 1.0000
Lr19 Lr 2 0.00000 0.00000 0.94449 1.0000
Lr20 Lr 2 0.00000 0.00000 0.81600 1.0000
Lr21 Lr 2 0.50000 0.50000 0.90339 1.0000
Lr22 Lr 2 0.50000 0.50000 0.73463 1.0000
Lr23 Lr 2 0.50000 0.50000 0.06790 1.0000
Lr24 Lr 2 0.50000 0.00000 0.90063 1.0000
Lr25 Lr 2 0.50000 0.00000 0.72170 1.0000
Lr26 Lr 2 0.50000 0.00000 0.07870 1.0000
loop_
_topos_bond_atom_site_label_1
_topos_bond_atom_site_label_2
_topos_bond_site_symmetry_1
_topos_bond_site_symmetry_2
_topos_bond_distance
_topos_bond_type
_topos_bond_multiplicity
O1 Si1 1_0_0_0 1_0_0_0 1.6110 V 8
O1 Si5 1_0_0_0 1_0_0_0 1.6110 V 8
O2 Si20 1_0_0_0 1_0_0_0 1.6090 V 8
O2 Si1 1_0_0_0 1_0_0_0 1.6100 V 8
O3 Si3 1_0_0_0 1_0_0_0 1.6100 V 8
O3 Si1 1_0_0_0 1_0_0_0 1.6110 V 8
O4 Si1 1_0_0_0 1_0_0_0 1.6100 V 8
O4 Si4 1_0_0_0 1_0_0_0 1.6100 V 8
O5 Si6 1_0_0_0 1_0_0_0 1.6100 V 8
O5 Si2 1_0_0_0 1_0_0_0 1.6100 V 8
O6 Si21 1_0_0_0 1_0_0_0 1.6090 V 8
O6 Si2 1_0_0_0 1_0_0_0 1.6100 V 8
O7 Si7 1_0_0_0 1_0_0_0 1.6090 V 8
O7 Si2 1_0_0_0 1_0_0_-1 1.6100 V 8
O8 Si2 1_0_0_0 1_0_0_0 1.6090 V 8
O8 Si4 1_0_0_0 1_0_0_0 1.6100 V 8
O9 Si6 1_0_0_0 1_0_0_0 1.6090 V 8
O9 Si3 1_0_0_0 1_0_0_0 1.6100 V 8
O10 Si8 1_0_0_0 1_0_0_0 1.6100 V 8
O10 Si4 1_0_0_0 1_0_0_0 1.6110 V 8
O11 Si9 1_0_0_0 1_0_0_0 1.6090 V 8
O11 Si5 1_0_0_0 1_0_0_0 1.6100 V 8
O12 Si5 1_0_0_0 1_0_0_0 1.6090 V 8
O12 Si10 1_0_0_0 1_0_0_0 1.6100 V 8
O13 Si7 1_0_0_0 1_0_0_0 1.6090 V 8
O13 Si12 1_0_0_0 1_0_0_0 1.6090 V 8
O14 Si7 1_0_0_0 1_0_0_0 1.6080 V 8
O14 Si11 1_0_0_0 1_0_0_0 1.6090 V 8
O15 Si13 1_0_0_0 1_0_0_0 1.6100 V 8
O15 Si8 1_0_0_0 1_0_0_0 1.6110 V 8
O16 Si8 1_0_0_0 1_0_0_0 1.6100 V 8
O16 Si11 1_0_0_0 1_0_0_1 1.6100 V 8
O17 Si9 1_0_0_0 1_0_0_0 1.6100 V 8
O17 Si13 1_0_0_0 1_0_0_0 1.6100 V 8
O18 Si22 1_0_0_0 1_0_0_0 1.6080 V 8
O18 Si9 1_0_0_0 1_0_0_0 1.6080 V 8
O19 Si14 1_0_0_0 1_0_0_0 1.6080 V 8
O19 Si9 1_0_0_0 1_0_0_0 1.6090 V 8
O20 Si15 1_0_0_0 1_0_0_0 1.6100 V 8
O20 Si10 1_0_0_0 1_0_0_0 1.6120 V 8
O21 Si16 1_0_0_0 1_0_0_0 1.6110 V 8
O21 Si10 1_0_0_0 1_0_0_0 1.6110 V 8
O22 Si17 1_0_0_0 1_0_0_0 1.6090 V 8
O22 Si11 1_0_0_0 1_0_0_0 1.6090 V 8
O23 Si11 1_0_0_0 1_0_0_0 1.6080 V 8
O23 Si23 1_0_0_0 1_0_0_0 1.6090 V 8
O24 Si12 1_0_0_0 1_0_0_0 1.6110 V 8
O24 Si16 1_0_0_0 8_0_0_-1 1.6110 V 8
O25 Si12 1_0_0_0 1_0_0_0 1.6100 V 8
O25 Si15 1_0_0_0 8_0_0_-1 1.6100 V 8
O26 Si14 1_0_0_0 1_0_0_0 1.6090 V 8
O26 Si18 1_0_0_0 1_0_0_0 1.6090 V 8
O27 Si15 1_0_0_0 1_0_0_0 1.6100 V 8
O27 Si18 1_0_0_0 1_0_0_0 1.6100 V 8
O28 Si24 1_0_0_0 1_0_0_0 1.6070 V 8
O28 Si15 1_0_0_0 1_0_0_0 1.6090 V 8
O29 Si16 1_0_0_0 1_0_0_0 1.6110 V 8
O29 Si19 1_0_0_0 1_0_0_0 1.6120 V 8
O30 Si25 1_0_0_0 1_0_0_0 1.6100 V 8
O30 Si16 1_0_0_0 1_0_0_0 1.6100 V 8
O31 Si17 1_0_0_0 1_0_0_0 1.6090 V 8
O31 Si19 1_0_0_0 8_0_0_-1 1.6110 V 8
O32 Si4 1_0_0_0 1_0_0_0 1.6090 V 8
O33 Si5 1_0_0_0 1_0_0_0 1.6090 V 8
O34 Si7 1_0_0_0 1_0_0_0 1.6100 V 8
O35 Si8 1_0_0_0 1_0_0_0 1.6100 V 8
O36 Si10 1_0_0_0 1_0_0_0 1.6100 V 8
O37 Si12 1_0_0_0 1_0_0_0 1.6110 V 8
O38 Si13 1_0_0_0 1_0_0_0 1.6090 V 8
O39 Si21 1_0_0_0 1_0_0_0 1.6120 V 4
O39 Si20 1_0_0_0 1_0_0_0 1.6120 V 4
O40 Si24 1_0_0_0 1_0_0_0 1.6070 V 4
O40 Si22 1_0_0_0 1_0_0_0 1.6080 V 4
O41 Si23 1_0_0_0 1_0_0_0 1.6110 V 4
O41 Si25 1_0_0_0 6_0_0_-1 1.6110 V 4
O42 Si3 1_0_0_0 1_0_0_0 1.6100 V 8
O43 Si6 1_0_0_0 1_0_0_0 1.6100 V 8
O44 Si19 1_0_0_0 1_0_0_0 1.6110 V 8
O45 Si3 1_0_0_0 1_0_0_0 1.6110 V 8
O46 Si6 1_0_0_0 1_0_0_0 1.6100 V 8
O47 Si14 1_0_0_0 1_0_0_0 1.6100 V 8
O48 Si17 1_0_0_0 1_0_0_0 1.6090 V 8
O49 Si18 1_0_0_0 1_0_0_0 1.6110 V 8
O50 Si19 1_0_0_0 1_0_0_0 1.6110 V 8
O51 Si13 1_0_0_0 1_0_0_0 1.6110 V 8
O52 Si14 1_0_0_0 1_0_0_0 1.6110 V 8
O53 Si17 1_0_0_0 1_0_0_0 1.6100 V 8
O54 Si18 1_0_0_0 1_0_0_0 1.6110 V 8
O55 Si20 1_0_0_0 1_0_0_0 1.6070 V 4
O56 Si21 1_0_0_0 1_0_0_0 1.6070 V 4
O57 Si25 1_0_0_0 1_0_0_0 1.6070 V 4
O58 Si22 1_0_0_0 1_0_0_0 1.6100 V 4
O59 Si23 1_0_0_0 1_0_0_0 1.6070 V 4
O60 Si24 1_0_0_0 1_0_0_0 1.6100 V 4
Lr1 Lr5 1_0_0_0 1_0_0_0 2.4030 V 8
Lr2 Lr6 1_0_0_0 1_0_0_0 2.3730 V 8
Lr10 Lr22 1_0_0_0 1_0_0_0 4.1620 V 4
Lr10 Lr17 1_0_0_0 1_0_0_0 2.2030 V 4
Lr11 Lr23 1_0_0_0 1_0_0_0 4.1620 V 4
Lr11 Lr18 1_0_0_0 1_0_0_0 2.2020 V 4
Lr12 Lr22 1_0_0_0 1_0_0_0 6.3550 V 4
Lr12 Lr23 1_0_0_0 5_0_-1_0 6.3990 V 4
Lr13 Lr15 1_0_0_0 1_0_0_0 2.7950 V 4
Lr15 Lr20 1_0_0_0 1_0_0_0 2.3510 V 4
Lr16 Lr24 1_0_0_0 1_0_0_0 5.1040 V 4
Lr16 Lr19 1_0_0_0 1_0_0_0 2.3470 V 4
Lr22 Lr24 1_0_0_0 1_0_0_0 12.7390 V 4
Lr23 Lr24 1_0_0_0 1_0_0_-1 12.7640 V 4
#End of data_239-TOPOS_UOV-NT

data_240-TOPOS_UOZ-PPT1
_audit_creation_date                2025-02-23
_audit_creation_method              ToposPro
_chemical_formula_structural        UOZ-PPT1
_chemical_formula_sum               'Lr1 O10 Si5'
_citation_special_details
;
Space Group: P4/NNC->P 4/n n c. File: UOZ-PPT1.cif. 
;
_cell_length_a                      8.621
_cell_length_b                      8.621
_cell_length_c                      27.544
_cell_angle_alpha                   90
_cell_angle_beta                    90
_cell_angle_gamma                   90
_cell_volume                        2047.115
_cell_formula_units_Z               8
_symmetry_space_group_name_H-M      'P 4/n n c'
_symmetry_Int_Tables_number         126
_refine_ls_R_factor_all             0
loop_
_symmetry_equiv_pos_site_id
_symmetry_equiv_pos_as_xyz
1 x,y,z
2 -x,-y,z
3 x,-y,-z
4 -x,y,-z
5 -y,-x,-z
6 y,x,-z
7 y,-x,z
8 -y,x,z
9 1/2-x,1/2-y,1/2-z
10 1/2+x,1/2+y,1/2-z
11 1/2-x,1/2+y,1/2+z
12 1/2+x,1/2-y,1/2+z
13 1/2+y,1/2+x,1/2+z
14 1/2-y,1/2-x,1/2+z
15 1/2-y,1/2+x,1/2-z
16 1/2+y,1/2-x,1/2-z
loop_
_atom_site_label
_atom_site_type_symbol
_atom_site_symmetry_multiplicity
_atom_site_fract_x
_atom_site_fract_y
_atom_site_fract_z
_atom_site_occupancy
O1 O 16 0.38870 0.10370 0.78400 1.0000
O2 O 16 0.18740 0.89290 0.80960 1.0000
O3 O 16 0.30070 0.08250 0.87560 1.0000
O4 O 16 0.60910 0.10650 0.03380 1.0000
O5 O 16 0.18770 0.89360 0.94160 1.0000
Si1 Si 16 0.24590 0.06700 0.81990 1.0000
Si2 Si 16 0.06800 0.75410 0.93120 1.0000
Si3 Si 4 0.50000 0.00000 0.75000 1.0000
Si4 Si 4 0.50000 0.00000 0.00000 1.0000
Lr1 Lr 4 0.00000 0.00000 0.87555 1.0000
Lr2 Lr 2 0.50000 0.50000 0.00000 1.0000
Lr3 Lr 2 0.00000 0.00000 0.00000 1.0000
loop_
_topos_bond_atom_site_label_1
_topos_bond_atom_site_label_2
_topos_bond_site_symmetry_1
_topos_bond_site_symmetry_2
_topos_bond_distance
_topos_bond_type
_topos_bond_multiplicity
O1 Si1 1_0_0_0 1_0_0_0 1.6100 V 16
O1 Si3 1_0_0_0 1_0_0_0 1.6110 V 16
O2 Si1 1_0_0_0 1_0_1_0 1.6090 V 16
O2 Si1 1_0_0_0 7_0_1_0 1.6090 V 16
O3 Si1 1_0_0_0 1_0_0_0 1.6110 V 16
O3 Si2 1_0_0_0 8_1_0_0 1.6080 V 16
O4 Si4 1_0_0_0 1_0_0_0 1.6110 V 16
O4 Si2 1_0_0_0 6_0_0_1 1.6130 V 16
O5 Si2 1_0_0_0 1_0_0_0 1.6100 V 16
O5 Si2 1_0_0_0 8_1_1_0 1.6110 V 16
#End of data_240-TOPOS_UOZ-PPT1

data_241-TOPOS_USI-NT
_audit_creation_date                2025-02-23
_audit_creation_method              ToposPro
_chemical_formula_structural        USI-NT
_chemical_formula_sum               'Lr9 O40 Si20'
_citation_special_details
;
Space Group: C2/M->C 2/m. File: USI-NT.cif. 
;
_cell_length_a                      21.119
_cell_length_b                      12.971
_cell_length_c                      9.672
_cell_angle_alpha                   90
_cell_angle_beta                    108.367
_cell_angle_gamma                   90
_cell_volume                        2514.523
_cell_formula_units_Z               2
_symmetry_space_group_name_H-M      'C 2/m'
_symmetry_Int_Tables_number         12
_refine_ls_R_factor_all             0
loop_
_symmetry_equiv_pos_site_id
_symmetry_equiv_pos_as_xyz
1 x,y,z
2 -x,y,-z
3 -x,-y,-z
4 x,-y,z
5 1/2+x,1/2+y,z
6 1/2-x,1/2+y,-z
7 1/2-x,1/2-y,-z
8 1/2+x,1/2-y,z
loop_
_atom_site_label
_atom_site_type_symbol
_atom_site_symmetry_multiplicity
_atom_site_fract_x
_atom_site_fract_y
_atom_site_fract_z
_atom_site_occupancy
O1 O 8 0.66010 0.13560 0.18960 1.0000
O2 O 8 0.77900 0.19000 0.18100 1.0000
O3 O 8 0.68250 0.14940 0.93780 1.0000
O4 O 8 0.84010 0.20080 0.65070 1.0000
O5 O 8 0.74710 0.12360 0.74770 1.0000
O6 O 8 0.72840 0.13410 0.46620 1.0000
O7 O 8 0.59780 0.86890 0.38880 1.0000
O8 O 8 0.62370 0.19030 0.66080 1.0000
O9 O 4 0.73750 0.00000 0.11950 1.0000
O10 O 4 0.81280 0.00000 0.62770 1.0000
O11 O 4 0.58430 0.00000 0.58520 1.0000
O12 O 4 0.50000 0.15420 0.50000 1.0000
Si1 Si 8 0.71470 0.11900 0.10680 1.0000
Si2 Si 8 0.78270 0.11450 0.62330 1.0000
Si3 Si 8 0.66100 0.82500 0.34810 1.0000
Si4 Si 8 0.57640 0.11870 0.53390 1.0000
Si5 Si 8 0.69340 0.80640 0.79140 1.0000
Lr1 Lr 4 0.67838 0.00000 0.57418 1.0000
Lr2 Lr 4 0.69180 0.00000 0.76385 1.0000
Lr3 Lr 4 0.68370 0.00000 0.40303 1.0000
Lr4 Lr 2 0.00000 0.00000 0.00000 1.0000
Lr5 Lr 2 0.00000 0.00000 0.50000 1.0000
Lr6 Lr 2 0.50000 0.00000 0.00000 1.0000
loop_
_topos_bond_atom_site_label_1
_topos_bond_atom_site_label_2
_topos_bond_site_symmetry_1
_topos_bond_site_symmetry_2
_topos_bond_distance
_topos_bond_type
_topos_bond_multiplicity
O1 Si1 1_0_0_0 1_0_0_0 1.6120 V 8
O1 Si3 1_0_0_0 4_0_1_0 1.6100 V 8
O2 Si1 1_0_0_0 1_0_0_0 1.6100 V 8
O2 Si5 1_0_0_0 6_1_-1_1 1.6100 V 8
O3 Si1 1_0_0_0 1_0_0_1 1.6090 V 8
O3 Si5 1_0_0_0 4_0_1_0 1.6100 V 8
O4 Si2 1_0_0_0 1_0_0_0 1.6090 V 8
O4 Si3 1_0_0_0 6_1_-1_1 1.6110 V 8
O5 Si2 1_0_0_0 1_0_0_0 1.6120 V 8
O5 Si5 1_0_0_0 4_0_1_0 1.6100 V 8
O6 Si2 1_0_0_0 1_0_0_0 1.6090 V 8
O6 Si3 1_0_0_0 4_0_1_0 1.6090 V 8
O7 Si3 1_0_0_0 1_0_0_0 1.6100 V 8
O7 Si4 1_0_0_0 4_0_1_0 1.6120 V 8
O8 Si4 1_0_0_0 1_0_0_0 1.6110 V 8
O8 Si5 1_0_0_0 4_0_1_0 1.6100 V 8
O9 Si1 1_0_0_0 1_0_0_0 1.6100 V 8
O10 Si2 1_0_0_0 1_0_0_0 1.6110 V 8
O11 Si4 1_0_0_0 1_0_0_0 1.6100 V 8
O12 Si4 1_0_0_0 1_0_0_0 1.6090 V 8
Lr1 Lr3 1_0_0_0 1_0_0_0 1.6940 V 4
Lr1 Lr2 1_0_0_0 1_0_0_0 1.7660 V 4
Lr4 Lr5 1_0_0_0 1_0_0_0 4.8360 V 4
Lr4 Lr6 1_0_0_0 5_-1_-1_0 6.4860 V 4
#End of data_241-TOPOS_USI-NT

data_242-TOPOS_UTL-NT
_audit_creation_date                2025-02-23
_audit_creation_method              ToposPro
_chemical_formula_structural        UTL-NT
_chemical_formula_sum               'Lr8 O38 Si19'
_citation_special_details
;
Space Group: C2/M->C 2/m. File: UTL-NT.cif. 
;
_cell_length_a                      28.996
_cell_length_b                      13.968
_cell_length_c                      12.449
_cell_angle_alpha                   90
_cell_angle_beta                    104.91
_cell_angle_gamma                   90
_cell_volume                        4872.286
_cell_formula_units_Z               4
_symmetry_space_group_name_H-M      'C 2/m'
_symmetry_Int_Tables_number         12
_refine_ls_R_factor_all             0
loop_
_symmetry_equiv_pos_site_id
_symmetry_equiv_pos_as_xyz
1 x,y,z
2 -x,y,-z
3 -x,-y,-z
4 x,-y,z
5 1/2+x,1/2+y,z
6 1/2-x,1/2+y,-z
7 1/2-x,1/2-y,-z
8 1/2+x,1/2-y,z
loop_
_atom_site_label
_atom_site_type_symbol
_atom_site_symmetry_multiplicity
_atom_site_fract_x
_atom_site_fract_y
_atom_site_fract_z
_atom_site_occupancy
O1 O 8 0.41940 0.67970 0.74110 1.0000
O2 O 8 0.50760 0.62900 0.84150 1.0000
O3 O 8 0.44140 0.63100 0.95140 1.0000
O4 O 8 0.40230 0.68090 0.11120 1.0000
O5 O 8 0.29570 0.90600 0.83550 1.0000
O6 O 8 0.19410 0.40480 0.78530 1.0000
O7 O 8 0.33790 0.40620 0.71610 1.0000
O8 O 8 0.19670 0.40550 0.46700 1.0000
O9 O 8 0.32880 0.72540 0.19190 1.0000
O10 O 8 0.24010 0.76930 0.19020 1.0000
O11 O 8 0.30850 0.78300 0.37510 1.0000
O12 O 8 0.34340 0.73760 0.58370 1.0000
O13 O 8 0.34790 0.76700 0.79510 1.0000
O14 O 8 0.32810 0.77530 0.98810 1.0000
O15 O 8 0.32120 0.59430 0.03640 1.0000
O16 O 4 0.43940 0.50000 0.79880 1.0000
O17 O 4 0.42520 0.50000 0.08900 1.0000
O18 O 4 0.27080 0.50000 0.77760 1.0000
O19 O 4 0.24180 0.50000 0.96080 1.0000
O20 O 4 0.27360 0.50000 0.56640 1.0000
O21 O 4 0.21730 0.00000 0.82440 1.0000
O22 O 4 0.25460 0.00000 0.65120 1.0000
O23 O 4 0.25000 0.75000 0.50000 1.0000
Si1 Si 8 0.45210 0.60990 0.83300 1.0000
Si2 Si 8 0.44010 0.60990 0.07770 1.0000
Si3 Si 8 0.29540 0.79540 0.24220 1.0000
Si4 Si 8 0.30100 0.79410 0.49820 1.0000
Si5 Si 8 0.30720 0.79380 0.85690 1.0000
Si6 Si 8 0.34530 0.69500 0.08270 1.0000
Si7 Si 8 0.36240 0.69570 0.70760 1.0000
Si8 Si 4 0.22470 0.50000 0.82700 1.0000
Si9 Si 4 0.30460 0.50000 0.69360 1.0000
Si10 Si 4 0.22780 0.50000 0.46120 1.0000
Si11 Si 4 0.29210 0.50000 0.05360 1.0000
Si12 Si 4 0.26600 0.00000 0.78470 1.0000
Lr1 Lr 8 0.23359 0.85074 0.33699 1.0000
Lr2 Lr 8 0.25009 0.66667 0.01066 1.0000
Lr3 Lr 4 0.33632 0.50000 0.88037 1.0000
Lr4 Lr 4 0.51707 0.00000 0.84247 1.0000
Lr5 Lr 2 0.50000 0.50000 0.00000 1.0000
Lr6 Lr 2 0.50000 0.50000 0.50000 1.0000
Lr7 Lr 2 0.50000 0.00000 0.00000 1.0000
Lr8 Lr 2 0.50000 0.00000 0.50000 1.0000
loop_
_topos_bond_atom_site_label_1
_topos_bond_atom_site_label_2
_topos_bond_site_symmetry_1
_topos_bond_site_symmetry_2
_topos_bond_distance
_topos_bond_type
_topos_bond_multiplicity
O1 Si1 1_0_0_0 1_0_0_0 1.6130 V 8
O1 Si7 1_0_0_0 1_0_0_0 1.6130 V 8
O2 Si1 1_0_0_0 1_0_0_0 1.6080 V 8
O2 Si2 1_0_0_0 2_1_0_1 1.6120 V 8
O3 Si1 1_0_0_0 1_0_0_0 1.6100 V 8
O3 Si2 1_0_0_0 1_0_0_1 1.6100 V 8
O4 Si2 1_0_0_0 1_0_0_0 1.6110 V 8
O4 Si6 1_0_0_0 1_0_0_0 1.6110 V 8
O5 Si5 1_0_0_0 1_0_0_0 1.6100 V 8
O5 Si12 1_0_0_0 1_0_1_0 1.6080 V 8
O6 Si8 1_0_0_0 1_0_0_0 1.6090 V 8
O6 Si3 1_0_0_0 6_0_-1_1 1.6120 V 8
O7 Si9 1_0_0_0 1_0_0_0 1.6090 V 8
O7 Si7 1_0_0_0 4_0_1_0 1.6060 V 8
O8 Si10 1_0_0_0 1_0_0_0 1.6110 V 8
O8 Si4 1_0_0_0 6_0_-1_1 1.6120 V 8
O9 Si6 1_0_0_0 1_0_0_0 1.6100 V 8
O9 Si3 1_0_0_0 1_0_0_0 1.6120 V 8
O10 Si3 1_0_0_0 1_0_0_0 1.6090 V 8
O10 Si5 1_0_0_0 7_0_1_1 1.6090 V 8
O11 Si3 1_0_0_0 1_0_0_0 1.6090 V 8
O11 Si4 1_0_0_0 1_0_0_0 1.6100 V 8
O12 Si7 1_0_0_0 1_0_0_0 1.6090 V 8
O12 Si4 1_0_0_0 1_0_0_0 1.6110 V 8
O13 Si7 1_0_0_0 1_0_0_0 1.6100 V 8
O13 Si5 1_0_0_0 1_0_0_0 1.6100 V 8
O14 Si5 1_0_0_0 1_0_0_0 1.6100 V 8
O14 Si6 1_0_0_0 1_0_0_1 1.6100 V 8
O15 Si11 1_0_0_0 1_0_0_0 1.6080 V 8
O15 Si6 1_0_0_0 1_0_0_0 1.6100 V 8
O16 Si1 1_0_0_0 1_0_0_0 1.6100 V 8
O17 Si2 1_0_0_0 1_0_0_0 1.6110 V 8
O18 Si9 1_0_0_0 1_0_0_0 1.6070 V 4
O18 Si8 1_0_0_0 1_0_0_0 1.6090 V 4
O19 Si8 1_0_0_0 1_0_0_0 1.6110 V 4
O19 Si11 1_0_0_0 1_0_0_1 1.6110 V 4
O20 Si9 1_0_0_0 1_0_0_0 1.6070 V 4
O20 Si10 1_0_0_0 1_0_0_0 1.6070 V 4
O21 Si11 1_0_0_0 6_0_-1_1 1.6110 V 4
O21 Si12 1_0_0_0 1_0_0_0 1.6120 V 4
O22 Si10 1_0_0_0 6_0_-1_1 1.6080 V 4
O22 Si12 1_0_0_0 1_0_0_0 1.6090 V 4
O23 Si4 1_0_0_0 1_0_0_0 1.6070 V 8
Lr2 Lr2 1_0_0_0 7_0_1_0 2.3430 V 4
Lr4 Lr7 1_0_0_0 1_0_0_1 2.1430 V 4
Lr4 Lr8 1_0_0_0 1_0_0_0 4.1640 V 4
Lr6 Lr8 1_0_0_0 1_0_0_0 6.9840 V 4
#End of data_242-TOPOS_UTL-NT

data_243-TOPOS_UWY-PPT1
_audit_creation_date                2025-02-23
_audit_creation_method              ToposPro
_chemical_formula_structural        UWY-PPT1
_chemical_formula_sum               'Lr37 O120 Si60'
_citation_special_details
;
Space Group: PMMM->P m m m. File: UWY-PPT1.cif. 
;
_cell_length_a                      25.11
_cell_length_b                      12.733
_cell_length_c                      11.51
_cell_angle_alpha                   90
_cell_angle_beta                    90
_cell_angle_gamma                   90
_cell_volume                        3680.042
_cell_formula_units_Z               1
_symmetry_space_group_name_H-M      'P m m m'
_symmetry_Int_Tables_number         47
_refine_ls_R_factor_all             0
loop_
_symmetry_equiv_pos_site_id
_symmetry_equiv_pos_as_xyz
1 x,y,z
2 -x,-y,z
3 x,-y,-z
4 -x,y,-z
5 -x,-y,-z
6 x,y,-z
7 -x,y,z
8 x,-y,z
loop_
_atom_site_label
_atom_site_type_symbol
_atom_site_symmetry_multiplicity
_atom_site_fract_x
_atom_site_fract_y
_atom_site_fract_z
_atom_site_occupancy
O1 O 8 0.09940 0.18790 0.28260 1.0000
O2 O 8 0.37870 0.30630 0.28170 1.0000
O3 O 8 0.28250 0.34270 0.35820 1.0000
O4 O 8 0.18450 0.30740 0.28600 1.0000
O5 O 8 0.37410 0.10340 0.31950 1.0000
O6 O 8 0.34760 0.17810 0.11410 1.0000
O7 O 8 0.44770 0.18030 0.18330 1.0000
O8 O 8 0.17050 0.17670 0.11350 1.0000
O9 O 8 0.19300 0.10360 0.32120 1.0000
O10 O 4 0.00000 0.16220 0.35150 1.0000
O11 O 4 0.07860 0.13700 0.50000 1.0000
O12 O 4 0.36350 0.36400 0.50000 1.0000
O13 O 4 0.20160 0.37090 0.50000 1.0000
O14 O 4 0.06380 0.00000 0.33180 1.0000
O15 O 4 0.28360 0.00000 0.30530 1.0000
O16 O 4 0.34930 0.50000 0.33070 1.0000
O17 O 4 0.21660 0.50000 0.32480 1.0000
O18 O 2 0.18020 0.00000 0.00000 1.0000
O19 O 2 0.33910 0.00000 0.00000 1.0000
O20 O 4 0.25960 0.13530 0.00000 1.0000
O21 O 2 0.33740 0.00000 0.50000 1.0000
O22 O 2 0.23040 0.00000 0.50000 1.0000
O23 O 2 0.50000 0.11680 0.00000 1.0000
O24 O 2 0.50000 0.00000 0.18720 1.0000
Si1 Si 8 0.06040 0.12220 0.36680 1.0000
Si2 Si 8 0.34380 0.37850 0.36770 1.0000
Si3 Si 8 0.22130 0.37990 0.36730 1.0000
Si4 Si 8 0.38660 0.19220 0.22380 1.0000
Si5 Si 8 0.16180 0.19360 0.25070 1.0000
Si6 Si 4 0.34250 0.00000 0.36080 1.0000
Si7 Si 4 0.22470 0.00000 0.36090 1.0000
Si8 Si 4 0.19590 0.12250 0.00000 1.0000
Si9 Si 4 0.32340 0.12250 0.00000 1.0000
Si10 Si 4 0.50000 0.11900 0.13960 1.0000
Lr1 Lr 8 0.27500 0.17365 0.24140 1.0000
Lr2 Lr 4 0.28012 0.19070 0.50000 1.0000
Lr3 Lr 4 0.16705 0.17392 0.50000 1.0000
Lr4 Lr 4 0.27026 0.00000 0.16707 1.0000
Lr5 Lr 2 0.40652 0.00000 0.00000 1.0000
Lr6 Lr 2 0.13382 0.00000 0.50000 1.0000
Lr7 Lr 1 0.00000 0.00000 0.50000 1.0000
Lr8 Lr 1 0.00000 0.00000 0.00000 1.0000
Lr9 Lr 1 0.00000 0.50000 0.50000 1.0000
Lr10 Lr 1 0.50000 0.50000 0.50000 1.0000
Lr11 Lr 2 0.28255 0.50000 0.50000 1.0000
Lr12 Lr 2 0.27463 0.50000 0.00000 1.0000
Lr13 Lr 1 0.50000 0.50000 0.00000 1.0000
Lr14 Lr 1 0.50000 0.00000 0.50000 1.0000
Lr15 Lr 2 0.50000 0.18006 0.50000 1.0000
Lr16 Lr 1 0.00000 0.50000 0.00000 1.0000
loop_
_topos_bond_atom_site_label_1
_topos_bond_atom_site_label_2
_topos_bond_site_symmetry_1
_topos_bond_site_symmetry_2
_topos_bond_distance
_topos_bond_type
_topos_bond_multiplicity
O1 Si5 1_0_0_0 1_0_0_0 1.6110 V 8
O1 Si1 1_0_0_0 1_0_0_0 1.6120 V 8
O2 Si2 1_0_0_0 1_0_0_0 1.6100 V 8
O2 Si4 1_0_0_0 1_0_0_0 1.6110 V 8
O3 Si2 1_0_0_0 1_0_0_0 1.6090 V 8
O3 Si3 1_0_0_0 1_0_0_0 1.6110 V 8
O4 Si3 1_0_0_0 1_0_0_0 1.6070 V 8
O4 Si5 1_0_0_0 1_0_0_0 1.6090 V 8
O5 Si6 1_0_0_0 1_0_0_0 1.6090 V 8
O5 Si4 1_0_0_0 1_0_0_0 1.6090 V 8
O6 Si4 1_0_0_0 1_0_0_0 1.6080 V 8
O6 Si9 1_0_0_0 1_0_0_0 1.6110 V 8
O7 Si10 1_0_0_0 1_0_0_0 1.6080 V 8
O7 Si4 1_0_0_0 1_0_0_0 1.6110 V 8
O8 Si5 1_0_0_0 1_0_0_0 1.6090 V 8
O8 Si8 1_0_0_0 1_0_0_0 1.6090 V 8
O9 Si7 1_0_0_0 1_0_0_0 1.6070 V 8
O9 Si5 1_0_0_0 1_0_0_0 1.6080 V 8
O10 Si1 1_0_0_0 1_0_0_0 1.6100 V 8
O11 Si1 1_0_0_0 1_0_0_0 1.6110 V 8
O12 Si2 1_0_0_0 1_0_0_0 1.6120 V 8
O13 Si3 1_0_0_0 1_0_0_0 1.6100 V 8
O14 Si1 1_0_0_0 1_0_0_0 1.6100 V 8
O15 Si6 1_0_0_0 1_0_0_0 1.6110 V 4
O15 Si7 1_0_0_0 1_0_0_0 1.6110 V 4
O16 Si2 1_0_0_0 1_0_0_0 1.6110 V 8
O17 Si3 1_0_0_0 1_0_0_0 1.6100 V 8
O18 Si8 1_0_0_0 1_0_0_0 1.6090 V 4
O19 Si9 1_0_0_0 1_0_0_0 1.6090 V 4
O20 Si8 1_0_0_0 1_0_0_0 1.6080 V 4
O20 Si9 1_0_0_0 1_0_0_0 1.6100 V 4
O21 Si6 1_0_0_0 1_0_0_0 1.6070 V 4
O22 Si7 1_0_0_0 1_0_0_0 1.6070 V 4
O23 Si10 1_0_0_0 1_0_0_0 1.6070 V 4
O24 Si10 1_0_0_0 1_0_0_0 1.6110 V 4
Lr1 Lr2 1_0_0_0 1_0_0_0 2.9870 V 8
Lr1 Lr4 1_0_0_0 1_0_0_0 2.3740 V 8
Lr2 Lr3 1_0_0_0 1_0_0_0 2.8470 V 4
Lr3 Lr6 1_0_0_0 1_0_0_0 2.3670 V 4
Lr8 Lr16 1_0_0_0 1_0_0_0 6.3660 V 2
Lr9 Lr16 1_0_0_0 1_0_0_0 5.7550 V 2
Lr10 Lr15 1_0_0_0 1_0_0_0 4.0740 V 2
Lr10 Lr13 1_0_0_0 1_0_0_0 5.7550 V 2
Lr12 Lr13 1_0_0_0 1_0_0_0 5.6590 V 2
Lr12 Lr16 1_0_0_0 1_0_0_0 6.8960 V 2
Lr14 Lr15 1_0_0_0 1_0_0_0 2.2930 V 2
#End of data_243-TOPOS_UWY-PPT1

data_244-TOPOS_VET-PPT1
_audit_creation_date                2025-02-23
_audit_creation_method              ToposPro
_chemical_formula_structural        VET-PPT1
_chemical_formula_sum               'Lr7 O34 Si17'
_citation_special_details
;
Space Group: P-4->P -4. File: VET-PPT1.cif. 
;
_cell_length_a                      13.048
_cell_length_b                      13.048
_cell_length_c                      4.948
_cell_angle_alpha                   90
_cell_angle_beta                    90
_cell_angle_gamma                   90
_cell_volume                        842.3985
_cell_formula_units_Z               1
_symmetry_space_group_name_H-M      'P -4'
_symmetry_Int_Tables_number         81
_refine_ls_R_factor_all             0
loop_
_symmetry_equiv_pos_site_id
_symmetry_equiv_pos_as_xyz
1 x,y,z
2 -x,-y,z
3 y,-x,-z
4 -y,x,-z
loop_
_atom_site_label
_atom_site_type_symbol
_atom_site_symmetry_multiplicity
_atom_site_fract_x
_atom_site_fract_y
_atom_site_fract_z
_atom_site_occupancy
O1 O 4 0.09410 0.03550 0.68890 1.0000
O2 O 4 0.25600 0.14240 0.54850 1.0000
O3 O 4 0.23840 0.07910 0.04730 1.0000
O4 O 4 0.27420 0.94610 0.65820 1.0000
O5 O 4 0.72330 0.24260 0.84300 1.0000
O6 O 4 0.83300 0.41000 0.78590 1.0000
O7 O 4 0.57810 0.17920 0.51190 1.0000
O8 O 4 0.58670 0.10980 0.01170 1.0000
O9 O 2 0.50000 0.00000 0.39220 1.0000
Si1 Si 4 0.21520 0.05030 0.73680 1.0000
Si2 Si 4 0.83410 0.28700 0.76030 1.0000
Si3 Si 4 0.65320 0.14660 0.75570 1.0000
Si4 Si 4 0.51860 0.11470 0.28260 1.0000
Si5 Si 1 0.00000 0.00000 0.50000 1.0000
Lr1 Lr 4 0.42102 0.04246 0.76200 1.0000
Lr2 Lr 1 0.00000 0.00000 0.00000 1.0000
Lr3 Lr 2 0.50000 0.50000 0.75034 1.0000
loop_
_topos_bond_atom_site_label_1
_topos_bond_atom_site_label_2
_topos_bond_site_symmetry_1
_topos_bond_site_symmetry_2
_topos_bond_distance
_topos_bond_type
_topos_bond_multiplicity
O1 Si1 1_0_0_0 1_0_0_0 1.6090 V 4
O1 Si5 1_0_0_0 1_0_0_0 1.6110 V 4
O2 Si1 1_0_0_0 1_0_0_0 1.6110 V 4
O2 Si2 1_0_0_0 3_0_1_1 1.6100 V 4
O3 Si2 1_0_0_0 3_0_1_1 1.6100 V 4
O3 Si1 1_0_0_0 1_0_0_-1 1.6100 V 4
O4 Si1 1_0_0_0 1_0_1_0 1.6100 V 4
O4 Si3 1_0_0_0 2_1_1_0 1.6100 V 4
O5 Si3 1_0_0_0 1_0_0_0 1.6100 V 4
O5 Si2 1_0_0_0 1_0_0_0 1.6100 V 4
O6 Si2 1_0_0_0 1_0_0_0 1.6100 V 4
O6 Si4 1_0_0_0 4_1_0_1 1.6090 V 4
O7 Si3 1_0_0_0 1_0_0_0 1.6110 V 4
O7 Si4 1_0_0_0 1_0_0_0 1.6120 V 4
O8 Si4 1_0_0_0 1_0_0_0 1.6090 V 4
O8 Si3 1_0_0_0 1_0_0_-1 1.6090 V 4
O9 Si4 1_0_0_0 1_0_0_0 1.6100 V 4
Lr1 Lr1 1_0_0_0 2_1_0_0 2.3400 V 2
Lr3 Lr3 1_0_0_0 3_0_1_1 2.4770 V 1
Lr3 Lr3 1_0_0_0 3_0_1_2 2.4710 V 1
#End of data_244-TOPOS_VET-PPT1

data_245-TOPOS_VFI-PPT1
_audit_creation_date                2025-02-23
_audit_creation_method              ToposPro
_chemical_formula_structural        VFI-PPT1
_chemical_formula_sum               'Lr1 O2 Si1'
_citation_special_details
;
Space Group: P63/MCM->P 63/m c m. File: VFI-PPT1.cif. 
;
_cell_length_a                      18.284
_cell_length_b                      18.284
_cell_length_c                      8.589
_cell_angle_alpha                   90
_cell_angle_beta                    90
_cell_angle_gamma                   120
_cell_volume                        2486.656
_cell_formula_units_Z               36
_symmetry_space_group_name_H-M      'P 63/m c m'
_symmetry_Int_Tables_number         193
_refine_ls_R_factor_all             0
loop_
_symmetry_equiv_pos_site_id
_symmetry_equiv_pos_as_xyz
1 x,y,z
2 -x,-y,1/2+z
3 -y,x-y,z
4 -x+y,-x,z
5 x-y,x,1/2+z
6 y,-x+y,1/2+z
7 x-y,-y,1/2-z
8 -x,-x+y,1/2-z
9 y,x,1/2-z
10 -y,-x,-z
11 x,x-y,-z
12 -x+y,y,-z
13 -x,-y,-z
14 x,y,1/2-z
15 y,-x+y,-z
16 x-y,x,-z
17 -x+y,-x,1/2-z
18 -y,x-y,1/2-z
19 -x+y,y,1/2+z
20 x,x-y,1/2+z
21 -y,-x,1/2+z
22 y,x,z
23 -x,-x+y,z
24 x-y,-y,z
loop_
_atom_site_label
_atom_site_type_symbol
_atom_site_symmetry_multiplicity
_atom_site_fract_x
_atom_site_fract_y
_atom_site_fract_z
_atom_site_occupancy
O1 O 24 0.08340 0.66480 0.49840 1.0000
O2 O 12 0.16930 0.58465 0.50000 1.0000
O3 O 12 0.24930 0.75070 0.50000 1.0000
O4 O 12 0.16810 0.66667 0.25000 1.0000
O5 O 6 0.50000 0.00000 0.50000 1.0000
O6 O 6 0.58330 0.00000 0.75000 1.0000
Si1 Si 24 0.16770 0.66667 0.43720 1.0000
Si2 Si 12 0.58280 0.00000 0.56290 1.0000
Lr1 Lr 12 0.08385 0.54193 0.25000 1.0000
Lr2 Lr 12 0.35430 0.83283 0.25000 1.0000
Lr3 Lr 2 0.00000 0.00000 0.25000 1.0000
Lr4 Lr 4 0.33333 0.66667 0.25000 1.0000
Lr5 Lr 6 0.00000 0.54142 0.25000 1.0000
loop_
_topos_bond_atom_site_label_1
_topos_bond_atom_site_label_2
_topos_bond_site_symmetry_1
_topos_bond_site_symmetry_2
_topos_bond_distance
_topos_bond_type
_topos_bond_multiplicity
O1 Si1 1_0_0_0 1_0_0_0 1.6130 V 24
O1 Si2 1_0_0_0 3_0_0_0 1.6110 V 24
O2 Si1 1_0_0_0 1_0_0_0 1.6080 V 24
O3 Si1 1_0_0_0 1_0_0_0 1.6080 V 24
O4 Si1 1_0_0_0 1_0_0_0 1.6080 V 24
O5 Si2 1_0_0_0 1_0_0_0 1.6070 V 12
O6 Si2 1_0_0_0 1_0_0_0 1.6070 V 12
Lr1 Lr5 1_0_0_0 1_0_0_0 1.5280 V 12
Lr1 Lr2 1_0_0_0 3_1_1_0 1.7410 V 12
Lr2 Lr4 1_0_0_0 1_0_0_0 2.8660 V 12
Lr3 Lr3 1_0_0_0 2_0_0_0 4.2950 V 2
#End of data_245-TOPOS_VFI-PPT1

data_246-TOPOS_VNI-PPT1
_audit_creation_date                2025-02-23
_audit_creation_method              ToposPro
_chemical_formula_structural        VNI-PPT1
_chemical_formula_sum               'Lr3 O10 Si5'
_citation_special_details
;
Space Group: P42/NCM->P 42/n c m. File: VNI-PPT1.cif. 
;
_cell_length_a                      10.002
_cell_length_b                      10.002
_cell_length_c                      34.141
_cell_angle_alpha                   90
_cell_angle_beta                    90
_cell_angle_gamma                   90
_cell_volume                        3415.466
_cell_formula_units_Z               12
_symmetry_space_group_name_H-M      'P 42/n c m'
_symmetry_Int_Tables_number         138
_refine_ls_R_factor_all             0
loop_
_symmetry_equiv_pos_site_id
_symmetry_equiv_pos_as_xyz
1 x,y,z
2 -x,-y,z
3 1/2+x,1/2-y,-z
4 1/2-x,1/2+y,-z
5 -y,-x,1/2-z
6 y,x,1/2-z
7 1/2+y,1/2-x,1/2+z
8 1/2-y,1/2+x,1/2+z
9 1/2-x,1/2-y,1/2-z
10 1/2+x,1/2+y,1/2-z
11 -x,y,1/2+z
12 x,-y,1/2+z
13 1/2+y,1/2+x,z
14 1/2-y,1/2-x,z
15 -y,x,-z
16 y,-x,-z
loop_
_atom_site_label
_atom_site_type_symbol
_atom_site_symmetry_multiplicity
_atom_site_fract_x
_atom_site_fract_y
_atom_site_fract_z
_atom_site_occupancy
O1 O 16 0.75450 0.06830 0.67120 1.0000
O2 O 16 0.78450 0.90150 0.61260 1.0000
O3 O 16 0.85560 0.83020 0.68360 1.0000
O4 O 16 0.81400 0.50000 0.01400 1.0000
O5 O 8 0.00000 0.00000 0.64540 1.0000
O6 O 8 0.90850 0.40850 0.21230 1.0000
O7 O 8 0.75300 0.25300 0.99420 1.0000
O8 O 8 0.80980 0.30980 0.06720 1.0000
O9 O 8 0.87120 0.37120 0.44890 1.0000
O10 O 8 0.90740 0.40740 0.76800 1.0000
O11 O 4 0.75000 0.25000 0.25000 1.0000
O12 O 4 0.00000 0.50000 0.83390 1.0000
Si1 Si 16 0.84850 0.95290 0.65320 1.0000
Si2 Si 8 0.79550 0.29550 0.20690 1.0000
Si3 Si 8 0.84460 0.34460 0.02230 1.0000
Si4 Si 8 0.85840 0.35840 0.49580 1.0000
Si5 Si 8 0.70540 0.20540 0.08610 1.0000
Si6 Si 8 0.89540 0.39540 0.81500 1.0000
Si7 Si 4 0.00000 0.50000 0.24040 1.0000
Lr1 Lr 4 0.00000 0.50000 0.59568 1.0000
Lr2 Lr 4 0.00000 0.50000 0.90677 1.0000
Lr3 Lr 8 0.50000 0.50000 0.03988 1.0000
Lr4 Lr 8 0.87206 0.62794 0.79486 1.0000
Lr5 Lr 8 0.64942 0.85058 0.66157 1.0000
Lr6 Lr 4 0.75000 0.25000 0.75000 1.0000
loop_
_topos_bond_atom_site_label_1
_topos_bond_atom_site_label_2
_topos_bond_site_symmetry_1
_topos_bond_site_symmetry_2
_topos_bond_distance
_topos_bond_type
_topos_bond_multiplicity
O1 Si1 1_0_0_0 1_0_-1_0 1.6110 V 16
O1 Si6 1_0_0_0 5_1_1_1 1.6130 V 16
O2 Si1 1_0_0_0 1_0_0_0 1.6110 V 16
O2 Si5 1_0_0_0 7_0_1_0 1.6090 V 16
O3 Si1 1_0_0_0 1_0_0_0 1.6090 V 16
O3 Si2 1_0_0_0 7_0_1_0 1.6050 V 16
O4 Si3 1_0_0_0 1_0_0_0 1.6090 V 16
O4 Si4 1_0_0_0 7_0_1_-1 1.6090 V 16
O5 Si1 1_0_0_0 1_-1_-1_0 1.6090 V 16
O6 Si2 1_0_0_0 1_0_0_0 1.6090 V 8
O6 Si7 1_0_0_0 1_1_0_0 1.6110 V 8
O7 Si3 1_0_0_0 1_0_0_1 1.6120 V 8
O7 Si4 1_0_0_0 5_1_1_1 1.6120 V 8
O8 Si3 1_0_0_0 1_0_0_0 1.6100 V 8
O8 Si5 1_0_0_0 1_0_0_0 1.6120 V 8
O9 Si4 1_0_0_0 1_0_0_0 1.6110 V 8
O9 Si5 1_0_0_0 5_1_1_0 1.6130 V 8
O10 Si6 1_0_0_0 1_0_0_0 1.6140 V 8
O10 Si7 1_0_0_0 7_0_0_0 1.6140 V 8
O11 Si2 1_0_0_0 1_0_0_0 1.6060 V 8
O12 Si6 1_0_0_0 1_-1_0_0 1.6140 V 8
Lr1 Lr3 1_0_0_0 7_-1_1_0 5.3520 V 16
Lr1 Lr2 1_0_0_0 5_0_0_1 7.0730 V 8
Lr1 Lr6 1_0_0_0 1_-1_0_0 6.3450 V 8
Lr3 Lr3 1_0_0_0 15_1_0_0 2.7230 V 4
Lr4 Lr5 1_0_0_0 6_0_0_1 1.5180 V 8
Lr6 Lr6 1_0_0_0 2_1_1_0 7.0720 V 4
#End of data_246-TOPOS_VNI-PPT1

data_247-TOPOS_VSV-PPT1
_audit_creation_date                2025-02-23
_audit_creation_method              ToposPro
_chemical_formula_structural        VSV-PPT1
_chemical_formula_sum               'Lr7 O18 Si9'
_citation_special_details
;
Space Group: I41/AMD->I 41/a m d. File: VSV-PPT1.cif. 
;
_cell_length_a                      7.156
_cell_length_b                      7.156
_cell_length_c                      41.842
_cell_angle_alpha                   90
_cell_angle_beta                    90
_cell_angle_gamma                   90
_cell_volume                        2142.659
_cell_formula_units_Z               4
_symmetry_space_group_name_H-M      'I 41/a m d'
_symmetry_Int_Tables_number         141
_refine_ls_R_factor_all             0
loop_
_symmetry_equiv_pos_site_id
_symmetry_equiv_pos_as_xyz
1 x,y,z
2 -x,-y,z
3 x,1/2-y,1/4-z
4 -x,1/2+y,1/4-z
5 -y,-x,-z
6 y,x,-z
7 y,1/2-x,1/4+z
8 -y,1/2+x,1/4+z
9 -x,1/2-y,1/4-z
10 x,1/2+y,1/4-z
11 -x,y,z
12 x,-y,z
13 y,1/2+x,1/4+z
14 -y,1/2-x,1/4+z
15 -y,x,-z
16 y,-x,-z
17 1/2+x,1/2+y,1/2+z
18 1/2-x,1/2-y,1/2+z
19 1/2+x,-y,3/4-z
20 1/2-x,y,3/4-z
21 1/2-y,1/2-x,1/2-z
22 1/2+y,1/2+x,1/2-z
23 1/2+y,-x,3/4+z
24 1/2-y,x,3/4+z
25 1/2-x,-y,3/4-z
26 1/2+x,y,3/4-z
27 1/2-x,1/2+y,1/2+z
28 1/2+x,1/2-y,1/2+z
29 1/2+y,x,3/4+z
30 1/2-y,-x,3/4+z
31 1/2-y,1/2+x,1/2-z
32 1/2+y,1/2-x,1/2-z
loop_
_atom_site_label
_atom_site_type_symbol
_atom_site_symmetry_multiplicity
_atom_site_fract_x
_atom_site_fract_y
_atom_site_fract_z
_atom_site_occupancy
O1 O 32 0.68340 0.31580 0.17820 1.0000
O2 O 16 0.81640 0.50000 0.22770 1.0000
O3 O 8 0.00000 0.50000 0.17360 1.0000
O4 O 8 0.50000 0.50000 0.07880 1.0000
O5 O 8 0.50000 0.75000 0.12500 1.0000
Si1 Si 16 0.79420 0.50000 0.18940 1.0000
Si2 Si 16 0.50000 0.71980 0.08690 1.0000
Si3 Si 4 0.00000 0.50000 0.25000 1.0000
Lr1 Lr 8 0.00000 0.50000 0.11580 1.0000
Lr2 Lr 8 0.50000 0.50000 0.14647 1.0000
Lr3 Lr 8 0.00000 0.00000 0.22893 1.0000
Lr4 Lr 4 0.50000 0.00000 0.25000 1.0000
loop_
_topos_bond_atom_site_label_1
_topos_bond_atom_site_label_2
_topos_bond_site_symmetry_1
_topos_bond_site_symmetry_2
_topos_bond_distance
_topos_bond_type
_topos_bond_multiplicity
O1 Si1 1_0_0_0 1_0_0_0 1.6080 V 32
O1 Si2 1_0_0_0 4_1_-1_0 1.6100 V 32
O2 Si1 1_0_0_0 1_0_0_0 1.6100 V 16
O2 Si3 1_0_0_0 1_1_0_0 1.6110 V 16
O3 Si1 1_0_0_0 1_-1_0_0 1.6140 V 16
O4 Si2 1_0_0_0 1_0_0_0 1.6090 V 16
O5 Si2 1_0_0_0 1_0_0_0 1.6090 V 16
Lr1 Lr3 1_0_0_0 3_0_0_0 3.9640 V 8
Lr1 Lr1 1_0_0_0 3_0_0_0 3.6600 V 8
Lr3 Lr4 1_0_0_0 1_0_0_0 3.6850 V 16
#End of data_247-TOPOS_VSV-PPT1

data_248-TOPOS_WEI-PPT1
_audit_creation_date                2025-02-23
_audit_creation_method              ToposPro
_chemical_formula_structural        WEI-PPT1
_chemical_formula_sum               'Lr1 O10 Si5'
_citation_special_details
;
Space Group: CCCM->C c c m. File: WEI-PPT1.cif. 
;
_cell_length_a                      11.803
_cell_length_b                      10.278
_cell_length_c                      9.989
_cell_angle_alpha                   90
_cell_angle_beta                    90
_cell_angle_gamma                   90
_cell_volume                        1211.778
_cell_formula_units_Z               4
_symmetry_space_group_name_H-M      'C c c m'
_symmetry_Int_Tables_number         66
_refine_ls_R_factor_all             0
loop_
_symmetry_equiv_pos_site_id
_symmetry_equiv_pos_as_xyz
1 x,y,z
2 -x,-y,z
3 x,-y,1/2-z
4 -x,y,1/2-z
5 -x,-y,-z
6 x,y,-z
7 -x,y,1/2+z
8 x,-y,1/2+z
9 1/2+x,1/2+y,z
10 1/2-x,1/2-y,z
11 1/2+x,1/2-y,1/2-z
12 1/2-x,1/2+y,1/2-z
13 1/2-x,1/2-y,-z
14 1/2+x,1/2+y,-z
15 1/2-x,1/2+y,1/2+z
16 1/2+x,1/2-y,1/2+z
loop_
_atom_site_label
_atom_site_type_symbol
_atom_site_symmetry_multiplicity
_atom_site_fract_x
_atom_site_fract_y
_atom_site_fract_z
_atom_site_occupancy
O1 O 16 0.42100 0.09050 0.65710 1.0000
O2 O 8 0.24250 0.08130 0.50000 1.0000
O3 O 8 0.22930 0.00000 0.75000 1.0000
O4 O 8 0.25000 0.25000 0.69820 1.0000
Si1 Si 16 0.28520 0.10590 0.65090 1.0000
Si2 Si 4 0.00000 0.50000 0.75000 1.0000
Lr1 Lr 4 0.50000 0.50000 0.00000 1.0000
loop_
_topos_bond_atom_site_label_1
_topos_bond_atom_site_label_2
_topos_bond_site_symmetry_1
_topos_bond_site_symmetry_2
_topos_bond_distance
_topos_bond_type
_topos_bond_multiplicity
O1 Si1 1_0_0_0 1_0_0_0 1.6120 V 16
O1 Si2 1_0_0_0 9_0_-1_0 1.6110 V 16
O2 Si1 1_0_0_0 1_0_0_0 1.6090 V 16
O3 Si1 1_0_0_0 1_0_0_0 1.6120 V 16
O4 Si1 1_0_0_0 1_0_0_0 1.6090 V 16
Lr1 Lr1 1_0_0_0 9_-1_-1_0 7.8250 V 4
Lr1 Lr1 1_0_0_0 3_0_1_0 4.9950 V 4
#End of data_248-TOPOS_WEI-PPT1

data_249-TOPOS_WEN-PPT1
_audit_creation_date                2025-02-23
_audit_creation_method              ToposPro
_chemical_formula_structural        WEN-PPT1
_chemical_formula_sum               'Lr10 O39 Si20'
_citation_special_details
;
Space Group: P-62M->P -6 2 m. File: WEN-PPT1.cif. 
;
_cell_length_a                      13.587
_cell_length_b                      13.587
_cell_length_c                      7.557
_cell_angle_alpha                   90
_cell_angle_beta                    90
_cell_angle_gamma                   120
_cell_volume                        1208.168
_cell_formula_units_Z               1
_symmetry_space_group_name_H-M      'P -6 2 m'
_symmetry_Int_Tables_number         189
_refine_ls_R_factor_all             0
loop_
_symmetry_equiv_pos_site_id
_symmetry_equiv_pos_as_xyz
1 x,y,z
2 -y,x-y,z
3 -x+y,-x,z
4 x-y,-y,-z
5 -x,-x+y,-z
6 y,x,-z
7 y,x,z
8 -x,-x+y,z
9 x-y,-y,z
10 x,y,-z
11 -x+y,-x,-z
12 -y,x-y,-z
loop_
_atom_site_label
_atom_site_type_symbol
_atom_site_symmetry_multiplicity
_atom_site_fract_x
_atom_site_fract_y
_atom_site_fract_z
_atom_site_occupancy
O1 O 12 0.36930 0.21120 0.32600 1.0000
O2 O 6 0.29990 0.14680 0.00000 1.0000
O3 O 6 0.21220 0.00000 0.26100 1.0000
O4 O 6 0.16430 0.16430 0.23030 1.0000
O5 O 3 0.38710 0.38710 0.50000 1.0000
O6 O 6 0.55670 0.34630 0.50000 1.0000
Si1 Si 12 0.26130 0.13060 0.20430 1.0000
Si2 Si 6 0.42040 0.28890 0.50000 1.0000
Si3 Si 2 0.66667 0.33333 0.50000 1.0000
Lr1 Lr 1 0.00000 0.00000 0.00000 1.0000
Lr2 Lr 3 0.51573 0.51573 0.00000 1.0000
Lr3 Lr 1 0.00000 0.00000 0.50000 1.0000
Lr4 Lr 3 0.36266 0.00000 0.50000 1.0000
Lr5 Lr 2 0.66667 0.33333 0.00000 1.0000
loop_
_topos_bond_atom_site_label_1
_topos_bond_atom_site_label_2
_topos_bond_site_symmetry_1
_topos_bond_site_symmetry_2
_topos_bond_distance
_topos_bond_type
_topos_bond_multiplicity
O1 Si1 1_0_0_0 1_0_0_0 1.6100 V 12
O1 Si2 1_0_0_0 1_0_0_0 1.6100 V 12
O2 Si1 1_0_0_0 1_0_0_0 1.6100 V 12
O3 Si1 1_0_0_0 1_0_0_0 1.6100 V 12
O4 Si1 1_0_0_0 1_0_0_0 1.6090 V 12
O5 Si2 1_0_0_0 1_0_0_0 1.6090 V 6
O6 Si3 1_0_0_0 1_0_0_0 1.5900 V 6
O6 Si2 1_0_0_0 1_0_0_0 1.6100 V 6
Lr2 Lr4 1_0_0_0 3_1_1_-1 4.1240 V 6
Lr2 Lr5 1_0_0_0 4_0_1_0 3.9280 V 6
#End of data_249-TOPOS_WEN-PPT1

data_250-TOPOS_YFI-PPT1
_audit_creation_date                2025-02-23
_audit_creation_method              ToposPro
_chemical_formula_structural        YFI-PPT1
_chemical_formula_sum               'Lr7 O30 Si15'
_citation_special_details
;
Space Group: CMMM->C m m m. File: YFI-PPT1.cif. 
;
_cell_length_a                      18.1807
_cell_length_b                      31.8406
_cell_length_c                      12.6407
_cell_angle_alpha                   90
_cell_angle_beta                    90
_cell_angle_gamma                   90
_cell_volume                        7317.504
_cell_formula_units_Z               8
_symmetry_space_group_name_H-M      'C m m m'
_symmetry_Int_Tables_number         65
_refine_ls_R_factor_all             0
loop_
_symmetry_equiv_pos_site_id
_symmetry_equiv_pos_as_xyz
1 x,y,z
2 -x,-y,z
3 x,-y,-z
4 -x,y,-z
5 -x,-y,-z
6 x,y,-z
7 -x,y,z
8 x,-y,z
9 1/2+x,1/2+y,z
10 1/2-x,1/2-y,z
11 1/2+x,1/2-y,-z
12 1/2-x,1/2+y,-z
13 1/2-x,1/2-y,-z
14 1/2+x,1/2+y,-z
15 1/2-x,1/2+y,z
16 1/2+x,1/2-y,z
loop_
_atom_site_label
_atom_site_type_symbol
_atom_site_symmetry_multiplicity
_atom_site_fract_x
_atom_site_fract_y
_atom_site_fract_z
_atom_site_occupancy
O1 O 16 0.36574 0.19776 0.64164 1.0000
O2 O 16 0.88199 0.15437 0.18949 1.0000
O3 O 16 0.24705 0.05498 0.39571 1.0000
O4 O 16 0.23040 0.17693 0.69182 1.0000
O5 O 16 0.11162 0.22382 0.30178 1.0000
O6 O 16 0.86748 0.07416 0.14465 1.0000
O7 O 16 0.62101 0.04119 0.32009 1.0000
O8 O 16 0.72722 0.06779 0.19434 1.0000
O9 O 16 0.67021 0.11847 0.33769 1.0000
O10 O 16 0.10781 0.15033 0.39599 1.0000
O11 O 8 0.09302 0.24651 0.50000 1.0000
O12 O 8 0.27979 0.16181 0.50000 1.0000
O13 O 8 0.87026 0.07967 0.50000 1.0000
O14 O 8 0.19555 0.00000 0.84714 1.0000
O15 O 8 0.00000 0.10779 0.15889 1.0000
O16 O 4 0.50000 0.00000 0.36386 1.0000
O17 O 8 0.50000 0.22805 0.35414 1.0000
O18 O 4 0.61004 0.00000 0.50000 1.0000
O19 O 4 0.16825 0.00000 0.50000 1.0000
O20 O 8 0.91371 0.12734 0.00000 1.0000
O21 O 8 0.77046 0.05259 0.00000 1.0000
O22 O 4 0.00000 0.11423 0.50000 1.0000
Si1 Si 16 0.41520 0.23888 0.37865 1.0000
Si2 Si 16 0.14211 0.17636 0.29877 1.0000
Si3 Si 16 0.20750 0.04866 0.12291 1.0000
Si4 Si 16 0.91595 0.11564 0.12379 1.0000
Si5 Si 16 0.30732 0.07069 0.31139 1.0000
Si6 Si 16 0.30144 0.16381 0.37669 1.0000
Si7 Si 8 0.19812 0.04763 0.50000 1.0000
Si8 Si 8 0.08682 0.12386 0.50000 1.0000
Si9 Si 8 0.41209 0.00000 0.37677 1.0000
Lr1 Lr 8 0.22333 0.12415 0.50000 1.0000
Lr2 Lr 8 0.50000 0.33075 0.32530 1.0000
Lr3 Lr 4 0.30621 0.00000 0.50000 1.0000
Lr4 Lr 8 0.27893 0.19026 0.00000 1.0000
Lr5 Lr 4 0.50000 0.30024 0.50000 1.0000
Lr6 Lr 4 0.50000 0.11049 0.50000 1.0000
Lr7 Lr 4 0.25000 0.25000 0.50000 1.0000
Lr8 Lr 2 0.50000 0.00000 0.00000 1.0000
Lr9 Lr 2 0.00000 0.00000 0.00000 1.0000
Lr10 Lr 4 0.00000 0.32428 0.00000 1.0000
Lr11 Lr 4 0.00000 0.00000 0.32292 1.0000
Lr12 Lr 4 0.25000 0.25000 0.00000 1.0000
loop_
_topos_bond_atom_site_label_1
_topos_bond_atom_site_label_2
_topos_bond_site_symmetry_1
_topos_bond_site_symmetry_2
_topos_bond_distance
_topos_bond_type
_topos_bond_multiplicity
O1 Si1 1_0_0_0 6_0_0_1 1.6090 V 16
O1 Si6 1_0_0_0 6_0_0_1 1.6090 V 16
O2 Si4 1_0_0_0 1_0_0_0 1.6100 V 16
O2 Si2 1_0_0_0 7_1_0_0 1.6090 V 16
O3 Si7 1_0_0_0 1_0_0_0 1.6070 V 16
O3 Si5 1_0_0_0 1_0_0_0 1.6080 V 16
O4 Si2 1_0_0_0 6_0_0_1 1.6100 V 16
O4 Si6 1_0_0_0 6_0_0_1 1.6100 V 16
O5 Si2 1_0_0_0 1_0_0_0 1.6100 V 16
O5 Si1 1_0_0_0 10_0_0_0 1.6100 V 16
O6 Si4 1_0_0_0 1_0_0_0 1.6090 V 16
O6 Si3 1_0_0_0 7_1_0_0 1.6100 V 16
O7 Si5 1_0_0_0 7_1_0_0 1.6100 V 16
O7 Si9 1_0_0_0 2_1_0_0 1.6110 V 16
O8 Si5 1_0_0_0 7_1_0_0 1.6100 V 16
O8 Si3 1_0_0_0 7_1_0_0 1.6110 V 16
O9 Si5 1_0_0_0 7_1_0_0 1.6100 V 16
O9 Si6 1_0_0_0 7_1_0_0 1.6100 V 16
O10 Si8 1_0_0_0 1_0_0_0 1.6080 V 16
O10 Si2 1_0_0_0 1_0_0_0 1.6080 V 16
O11 Si1 1_0_0_0 10_0_0_0 1.6100 V 16
O12 Si6 1_0_0_0 1_0_0_0 1.6090 V 16
O13 Si7 1_0_0_0 4_1_0_1 1.6080 V 8
O13 Si8 1_0_0_0 4_1_0_1 1.6090 V 8
O14 Si3 1_0_0_0 3_0_0_1 1.6100 V 16
O15 Si4 1_0_0_0 1_-1_0_0 1.6110 V 16
O16 Si9 1_0_0_0 1_0_0_0 1.6070 V 8
O17 Si1 1_0_0_0 1_0_0_0 1.6100 V 16
O18 Si9 1_0_0_0 2_1_0_0 1.6090 V 8
O19 Si7 1_0_0_0 1_0_0_0 1.6110 V 8
O20 Si4 1_0_0_0 1_0_0_0 1.6090 V 16
O21 Si3 1_0_0_0 4_1_0_0 1.6090 V 16
O22 Si8 1_0_0_0 1_0_0_0 1.6080 V 8
Lr2 Lr5 1_0_0_0 1_0_0_0 2.4130 V 8
Lr4 Lr12 1_0_0_0 1_0_0_0 1.9740 V 8
Lr4 Lr10 1_0_0_0 10_0_0_0 4.0460 V 8
Lr6 Lr10 1_0_0_0 10_0_0_1 6.6530 V 8
Lr8 Lr10 1_0_0_0 10_0_0_0 5.5950 V 4
Lr9 Lr11 1_0_0_0 1_0_0_0 4.0820 V 4
Lr11 Lr11 1_0_0_0 3_0_0_1 4.4770 V 2
#End of data_250-TOPOS_YFI-PPT1

data_251-TOPOS_YUG-PPT1
_audit_creation_date                2025-02-23
_audit_creation_method              ToposPro
_chemical_formula_structural        YUG-PPT1
_chemical_formula_sum               'Lr3 O16 Si8'
_citation_special_details
;
Space Group: C2/M->C 2/m. File: YUG-PPT1.cif. 
;
_cell_length_a                      10.248
_cell_length_b                      13.788
_cell_length_c                      6.782
_cell_angle_alpha                   90
_cell_angle_beta                    111.545
_cell_angle_gamma                   90
_cell_volume                        891.3363
_cell_formula_units_Z               2
_symmetry_space_group_name_H-M      'C 2/m'
_symmetry_Int_Tables_number         12
_refine_ls_R_factor_all             0
loop_
_symmetry_equiv_pos_site_id
_symmetry_equiv_pos_as_xyz
1 x,y,z
2 -x,y,-z
3 -x,-y,-z
4 x,-y,z
5 1/2+x,1/2+y,z
6 1/2-x,1/2+y,-z
7 1/2-x,1/2-y,-z
8 1/2+x,1/2-y,z
loop_
_atom_site_label
_atom_site_type_symbol
_atom_site_symmetry_multiplicity
_atom_site_fract_x
_atom_site_fract_y
_atom_site_fract_z
_atom_site_occupancy
O1 O 8 0.33990 0.16850 0.22370 1.0000
O2 O 8 0.27420 0.35350 0.18980 1.0000
O3 O 4 0.25000 0.25000 0.50000 1.0000
O4 O 4 0.50000 0.29350 0.50000 1.0000
O5 O 4 0.35420 0.00000 0.05250 1.0000
O6 O 4 0.50000 0.14810 0.00000 1.0000
Si1 Si 8 0.34110 0.26630 0.35380 1.0000
Si2 Si 8 0.35490 0.11560 0.02140 1.0000
Lr1 Lr 4 0.58103 0.00000 0.38873 1.0000
Lr2 Lr 2 0.00000 0.00000 0.00000 1.0000
loop_
_topos_bond_atom_site_label_1
_topos_bond_atom_site_label_2
_topos_bond_site_symmetry_1
_topos_bond_site_symmetry_2
_topos_bond_distance
_topos_bond_type
_topos_bond_multiplicity
O1 Si1 1_0_0_0 1_0_0_0 1.6090 V 8
O1 Si2 1_0_0_0 1_0_0_0 1.6100 V 8
O2 Si1 1_0_0_0 1_0_0_0 1.6100 V 8
O2 Si2 1_0_0_0 7_0_0_0 1.6100 V 8
O3 Si1 1_0_0_0 1_0_0_0 1.6080 V 8
O4 Si1 1_0_0_0 1_0_0_0 1.6090 V 8
O5 Si2 1_0_0_0 1_0_0_0 1.6080 V 8
O6 Si2 1_0_0_0 1_0_0_0 1.6100 V 8
Lr1 Lr2 1_0_0_0 1_1_0_1 4.7480 V 4
Lr1 Lr1 1_0_0_0 2_1_0_1 2.6220 V 2
Lr2 Lr2 1_0_0_0 1_0_0_-1 6.7820 V 2
#End of data_251-TOPOS_YUG-PPT1

data_252-TOPOS_ZJN-PPT1
_audit_creation_date                2025-02-23
_audit_creation_method              ToposPro
_chemical_formula_structural        ZJN-PPT1
_chemical_formula_sum               'Lr1 O12 Si6'
_citation_special_details
;
Space Group: P63/MMC->P 63/m m c. File: ZJN-PPT1.cif. 
;
_cell_length_a                      12.5666
_cell_length_b                      12.5666
_cell_length_c                      25.6354
_cell_angle_alpha                   90
_cell_angle_beta                    90
_cell_angle_gamma                   120
_cell_volume                        3505.955
_cell_formula_units_Z               10
_symmetry_space_group_name_H-M      'P 63/m m c'
_symmetry_Int_Tables_number         194
_refine_ls_R_factor_all             0
loop_
_symmetry_equiv_pos_site_id
_symmetry_equiv_pos_as_xyz
1 x,y,z
2 -x,-y,1/2+z
3 -y,x-y,z
4 -x+y,-x,z
5 x-y,x,1/2+z
6 y,-x+y,1/2+z
7 x-y,-y,-z
8 -x,-x+y,-z
9 y,x,-z
10 -y,-x,1/2-z
11 x,x-y,1/2-z
12 -x+y,y,1/2-z
13 -x,-y,-z
14 x,y,1/2-z
15 y,-x+y,-z
16 x-y,x,-z
17 -x+y,-x,1/2-z
18 -y,x-y,1/2-z
19 -x+y,y,z
20 x,x-y,z
21 -y,-x,z
22 y,x,1/2+z
23 -x,-x+y,1/2+z
24 x-y,-y,1/2+z
loop_
_atom_site_label
_atom_site_type_symbol
_atom_site_symmetry_multiplicity
_atom_site_fract_x
_atom_site_fract_y
_atom_site_fract_z
_atom_site_occupancy
O1 O 24 0.00624 0.37784 0.10126 1.0000
O2 O 24 0.33086 0.02516 0.19880 1.0000
O3 O 12 0.13030 0.56515 0.03865 1.0000
O4 O 12 0.20078 0.40156 0.05316 1.0000
O5 O 12 0.00000 0.34233 0.00000 1.0000
O6 O 12 0.55749 0.11498 0.16511 1.0000
O7 O 12 0.42616 0.21308 0.13395 1.0000
O8 O 6 0.19856 0.09928 0.25000 1.0000
O9 O 6 0.13536 0.86464 0.25000 1.0000
Si1 Si 24 0.08472 0.42195 0.04813 1.0000
Si2 Si 24 0.42155 0.08702 0.14991 1.0000
Si3 Si 12 0.24838 0.00351 0.25000 1.0000
Lr1 Lr 4 0.66667 0.33333 0.04997 1.0000
Lr2 Lr 2 0.33333 0.66667 0.25000 1.0000
Lr3 Lr 2 0.66667 0.33333 0.25000 1.0000
Lr4 Lr 2 0.00000 0.00000 0.00000 1.0000
loop_
_topos_bond_atom_site_label_1
_topos_bond_atom_site_label_2
_topos_bond_site_symmetry_1
_topos_bond_site_symmetry_2
_topos_bond_distance
_topos_bond_type
_topos_bond_multiplicity
O1 Si1 1_0_0_0 1_0_0_0 1.6090 V 24
O1 Si2 1_0_0_0 3_0_0_0 1.6090 V 24
O2 Si2 1_0_0_0 1_0_0_0 1.6090 V 24
O2 Si3 1_0_0_0 1_0_0_0 1.6090 V 24
O3 Si1 1_0_0_0 1_0_0_0 1.6110 V 24
O4 Si1 1_0_0_0 1_0_0_0 1.6070 V 24
O5 Si1 1_0_0_0 1_0_0_0 1.6100 V 24
O6 Si2 1_0_0_0 1_0_0_0 1.6100 V 24
O7 Si2 1_0_0_0 1_0_0_0 1.6090 V 24
O8 Si3 1_0_0_0 1_0_0_0 1.6110 V 12
O9 Si3 1_0_0_0 1_0_1_0 1.6080 V 12
#End of data_252-TOPOS_ZJN-PPT1

data_253-TOPOS_ZON-PPT1
_audit_creation_date                2025-02-23
_audit_creation_method              ToposPro
_chemical_formula_structural        ZON-PPT1
_chemical_formula_sum               'Lr1 O8 Si4'
_citation_special_details
;
Space Group: PBCM->P b c m. File: ZON-PPT1.cif. 
;
_cell_length_a                      6.918
_cell_length_b                      14.87
_cell_length_c                      17.236
_cell_angle_alpha                   90
_cell_angle_beta                    90
_cell_angle_gamma                   90
_cell_volume                        1773.079
_cell_formula_units_Z               8
_symmetry_space_group_name_H-M      'P b c m'
_symmetry_Int_Tables_number         57
_refine_ls_R_factor_all             0
loop_
_symmetry_equiv_pos_site_id
_symmetry_equiv_pos_as_xyz
1 x,y,z
2 -x,-y,1/2+z
3 x,1/2-y,-z
4 -x,1/2+y,1/2-z
5 -x,-y,-z
6 x,y,1/2-z
7 -x,1/2+y,z
8 x,1/2-y,1/2+z
loop_
_atom_site_label
_atom_site_type_symbol
_atom_site_symmetry_multiplicity
_atom_site_fract_x
_atom_site_fract_y
_atom_site_fract_z
_atom_site_occupancy
O1 O 8 0.91690 0.67890 0.86940 1.0000
O2 O 8 0.29370 0.68220 0.88760 1.0000
O3 O 8 0.10630 0.83240 0.85970 1.0000
O4 O 8 0.08210 0.00430 0.89570 1.0000
O5 O 8 0.30800 0.89800 0.97650 1.0000
O6 O 8 0.93070 0.88210 0.98770 1.0000
O7 O 8 0.61180 0.60040 0.93110 1.0000
O8 O 4 0.14340 0.71050 0.75000 1.0000
O9 O 4 0.50590 0.75000 0.00000 1.0000
Si1 Si 8 0.11460 0.72620 0.84160 1.0000
Si2 Si 8 0.10690 0.90400 0.92970 1.0000
Si3 Si 8 0.84430 0.60050 0.92680 1.0000
Si4 Si 8 0.42970 0.84150 0.03950 1.0000
Lr1 Lr 4 0.60976 0.94059 0.75000 1.0000
Lr2 Lr 4 0.98504 0.75000 0.00000 1.0000
loop_
_topos_bond_atom_site_label_1
_topos_bond_atom_site_label_2
_topos_bond_site_symmetry_1
_topos_bond_site_symmetry_2
_topos_bond_distance
_topos_bond_type
_topos_bond_multiplicity
O1 Si3 1_0_0_0 1_0_0_0 1.6090 V 8
O1 Si1 1_0_0_0 1_1_0_0 1.6110 V 8
O2 Si1 1_0_0_0 1_0_0_0 1.6100 V 8
O2 Si4 1_0_0_0 3_0_1_1 1.6090 V 8
O3 Si2 1_0_0_0 1_0_0_0 1.6090 V 8
O3 Si1 1_0_0_0 1_0_0_0 1.6110 V 8
O4 Si3 1_0_0_0 7_1_-1_0 1.6100 V 8
O4 Si2 1_0_0_0 1_0_-1_0 1.6120 V 8
O5 Si2 1_0_0_0 1_0_0_0 1.6110 V 8
O5 Si4 1_0_0_0 1_0_0_1 1.6110 V 8
O6 Si2 1_0_0_0 1_1_0_0 1.6100 V 8
O6 Si3 1_0_0_0 3_0_1_2 1.6110 V 8
O7 Si3 1_0_0_0 1_0_0_0 1.6100 V 8
O7 Si4 1_0_0_0 3_0_1_1 1.6090 V 8
O8 Si1 1_0_0_0 1_0_0_0 1.6080 V 8
O9 Si4 1_0_0_0 1_0_0_0 1.6100 V 8
Lr1 Lr1 1_0_0_0 1_-1_0_0 6.9180 V 4
Lr1 Lr1 1_0_0_0 4_1_0_1 7.5890 V 4
#End of data_253-TOPOS_ZON-PPT1

