data_2-TOPOS_ACO/PPT1
_audit_creation_date                2025-02-23
_audit_creation_method              ToposPro
_chemical_formula_structural        ACO/PPT1
_chemical_formula_sum               'O4 Si2 X1'
_citation_special_details
;
Citation details: . File: ACO-PPT1_T.cif. 
;
_cell_length_a                      9.905
_cell_length_b                      9.905
_cell_length_c                      9.905
_cell_angle_alpha                   90
_cell_angle_beta                    90
_cell_angle_gamma                   90
_cell_volume                        971.7698
_cell_formula_units_Z               8
_symmetry_space_group_name_H-M      'I m -3 m'
_symmetry_Int_Tables_number         229
_refine_ls_R_factor_all             0
loop_
_symmetry_equiv_pos_site_id
_symmetry_equiv_pos_as_xyz
1 x,y,z
2 -x,-y,z
3 x,-y,-z
4 -x,y,-z
5 z,x,y
6 y,z,x
7 -z,-x,y
8 -y,z,-x
9 z,-x,-y
10 -y,-z,x
11 -z,x,-y
12 y,-z,-x
13 -y,-x,-z
14 y,x,-z
15 y,-x,z
16 -y,x,z
17 -x,-z,-y
18 -z,-y,-x
19 x,z,-y
20 -z,y,x
21 x,-z,y
22 z,y,-x
23 -x,z,y
24 z,-y,x
25 -x,-y,-z
26 x,y,-z
27 -x,y,z
28 x,-y,z
29 -z,-x,-y
30 -y,-z,-x
31 z,x,-y
32 y,-z,x
33 -z,x,y
34 y,z,-x
35 z,-x,y
36 -y,z,x
37 y,x,z
38 -y,-x,z
39 -y,x,-z
40 y,-x,-z
41 x,z,y
42 z,y,x
43 -x,-z,y
44 z,-y,-x
45 -x,z,-y
46 -z,-y,x
47 x,-z,-y
48 -z,y,-x
49 1/2+x,1/2+y,1/2+z
50 1/2-x,1/2-y,1/2+z
51 1/2+x,1/2-y,1/2-z
52 1/2-x,1/2+y,1/2-z
53 1/2+z,1/2+x,1/2+y
54 1/2+y,1/2+z,1/2+x
55 1/2-z,1/2-x,1/2+y
56 1/2-y,1/2+z,1/2-x
57 1/2+z,1/2-x,1/2-y
58 1/2-y,1/2-z,1/2+x
59 1/2-z,1/2+x,1/2-y
60 1/2+y,1/2-z,1/2-x
61 1/2-y,1/2-x,1/2-z
62 1/2+y,1/2+x,1/2-z
63 1/2+y,1/2-x,1/2+z
64 1/2-y,1/2+x,1/2+z
65 1/2-x,1/2-z,1/2-y
66 1/2-z,1/2-y,1/2-x
67 1/2+x,1/2+z,1/2-y
68 1/2-z,1/2+y,1/2+x
69 1/2+x,1/2-z,1/2+y
70 1/2+z,1/2+y,1/2-x
71 1/2-x,1/2+z,1/2+y
72 1/2+z,1/2-y,1/2+x
73 1/2-x,1/2-y,1/2-z
74 1/2+x,1/2+y,1/2-z
75 1/2-x,1/2+y,1/2+z
76 1/2+x,1/2-y,1/2+z
77 1/2-z,1/2-x,1/2-y
78 1/2-y,1/2-z,1/2-x
79 1/2+z,1/2+x,1/2-y
80 1/2+y,1/2-z,1/2+x
81 1/2-z,1/2+x,1/2+y
82 1/2+y,1/2+z,1/2-x
83 1/2+z,1/2-x,1/2+y
84 1/2-y,1/2+z,1/2+x
85 1/2+y,1/2+x,1/2+z
86 1/2-y,1/2-x,1/2+z
87 1/2-y,1/2+x,1/2-z
88 1/2+y,1/2-x,1/2-z
89 1/2+x,1/2+z,1/2+y
90 1/2+z,1/2+y,1/2+x
91 1/2-x,1/2-z,1/2+y
92 1/2+z,1/2-y,1/2-x
93 1/2-x,1/2+z,1/2-y
94 1/2-z,1/2-y,1/2+x
95 1/2+x,1/2-z,1/2-y
96 1/2-z,1/2+y,1/2-x
loop_
_atom_site_label
_atom_site_type_symbol
_atom_site_symmetry_multiplicity
_atom_site_fract_x
_atom_site_fract_y
_atom_site_fract_z
_atom_site_occupancy
O1 O 8 0.25000 0.25000 0.25000 1.0000
O2 O 24 0.18770 0.18770 0.00000 1.0000
Si1 Si 16 0.15640 0.15640 0.15640 1.0000
X1 X 6 0.00000 0.00000 0.50000 1.0000
X2 X 2 0.00000 0.00000 0.00000 1.0000
loop_
_topos_bond_atom_site_label_1
_topos_bond_atom_site_label_2
_topos_bond_site_symmetry_1
_topos_bond_site_symmetry_2
_topos_bond_distance
_topos_bond_voronoi_solidangle
_topos_bond_type
_topos_bond_multiplicity
O1 Si1 1_0_0_0 61_0_0_0 1.6058 25.03 V 16
O2 Si1 1_0_0_0 14_0_0_0 1.6100 24.99 V 48
X1 X1 1_0_0_0 54_-1_-1_0 4.9525 0.00 V 12
#End of data_2-TOPOS_ACO/PPT1

