data_MFI-PPT1
_audit_creation_method             	Write2Cif_ToposPro  
_symmetry_space_group_name_H-M     	PNMA                
_symmetry_Int_Tables_number        	62                  
_symmetry_cell_setting             	orthorhombic system 
_cell_length_a                     	20.09               
_cell_length_b                     	19.738              
_cell_length_c                     	13.142              
_cell_angle_alpha                  	90.0                
_cell_angle_beta                   	90.0                
_cell_angle_gamma                  	90.0                
loop_
_symmetry_equiv_pos_as_xyz
x,y,z
-x+1/2,-y,z+1/2
-x,y+1/2,-z
x+1/2,-y+1/2,-z+1/2
-x,-y,-z
x+1/2,y,-z+1/2
x,-y+1/2,z
-x+1/2,y+1/2,z+1/2
loop_
_atom_site_label
_atom_site_type_symbol
_atom_site_fract_x
_atom_site_fract_y
_atom_site_fract_z
O1        	O         	0.0012    	0.0699    	0.7018    
O2        	O         	0.8875    	0.0743    	0.8008    
O3        	O         	0.8995    	0.1366    	0.6251    
O4        	O         	0.8972    	0.0034    	0.6326    
O5        	O         	0.829     	0.0385    	0.9722    
O6        	O         	0.8297    	0.9555    	0.8155    
O7        	O         	0.7571    	0.0663    	0.8106    
O8        	O         	0.791     	0.1296    	0.106     
O9        	O         	0.7034    	0.0455    	0.0275    
O10       	O         	0.7936    	0.001     	0.1564    
O11       	O         	0.6075    	0.1265    	0.0883    
O12       	O         	0.5846    	0.037     	0.9443    
O13       	O         	0.6301    	0.0781    	0.767     
O14       	O         	0.5728    	0.9589    	0.7832    
O15       	O         	0.7201    	0.1313    	0.6456    
O16       	O         	0.9911    	0.8548    	0.7169    
O17       	O         	0.8681    	0.8311    	0.7743    
O18       	O         	0.8217    	0.8611    	0.9561    
O19       	O         	0.741     	0.8582    	0.799     
O20       	O         	0.6976    	0.8313    	0.0003    
O21       	O         	0.5809    	0.867     	0.9275    
O22       	O         	0.6177    	0.837     	0.7406    
Si1       	Si        	0.9214    	0.0711    	0.6898    
Si2       	Si        	0.8259    	0.0336    	0.85      
Si3       	Si        	0.7792    	0.0536    	0.0655    
Si4       	Si        	0.6246    	0.0514    	0.0481    
Si5       	Si        	0.5721    	0.036     	0.8233    
Si6       	Si        	0.7034    	0.0687    	0.7197    
Si7       	Si        	0.9195    	0.8274    	0.6805    
Si8       	Si        	0.8152    	0.8765    	0.8361    
Si9       	Si        	0.7733    	0.8278    	0.0402    
Si10      	Si        	0.6185    	0.8279    	0.0183    
Si11      	Si        	0.5657    	0.8794    	0.8087    
Si12      	Si        	0.6947    	0.8288    	0.7092    
ZA3       	ZA        	0.98848   	0.0517    	0.46072   
ZA4       	ZA        	0.80409   	0.05309   	0.44601   
ZA5       	ZA        	0.80954   	0.95014   	0.69986   
ZA6       	ZA        	0.97774   	0.94928   	0.91169   
O23       	O         	0.9263    	0.75      	0.6431    
O24       	O         	0.7943    	0.75      	0.0579    
O25       	O         	0.5948    	0.75      	0.0205    
O26       	O         	0.7116    	0.75      	0.6913    
ZA1       	ZA        	0.6938    	0.75      	0.29896   
ZA2       	ZA        	0.69348   	0.75      	0.8825    
ZA9       	ZA        	0.80067   	0.75      	0.8165    
ZA10      	ZA        	0.00772   	0.75      	0.04166   
ZA11      	ZA        	0.0746    	0.75      	0.66107   
ZA7       	ZA        	0.70028   	0.25      	0.97473   
ZA8       	ZA        	0.05556   	0.25      	0.58812   
loop_
_topos_bond_atom_site_label_1
_topos_bond_atom_site_label_2
_topos_bond_site_symmetry_1
_topos_bond_site_symmetry_2
_topos_bond_distance
_topos_bond_type
O1   	Si5  	1_0_0_0   	6_-1_0_1  	1.608  V    
O1   	Si1  	1_0_0_0   	1_-1_0_0  	1.611  V    
O2   	Si2  	1_0_0_0   	1_0_0_0   	1.611  V    
O2   	Si1  	1_0_0_0   	1_0_0_0   	1.611  V    
O3   	Si1  	1_0_0_0   	1_0_0_0   	1.609  V    
O3   	Si10 	1_0_0_0   	2_1_1_0   	1.61   V    
O4   	Si1  	1_0_0_0   	1_0_0_0   	1.608  V    
O4   	Si4  	1_0_0_0   	2_1_0_0   	1.611  V    
O5   	Si2  	1_0_0_0   	1_0_0_0   	1.61   V    
O5   	Si3  	1_0_0_0   	1_0_0_1   	1.61   V    
O6   	Si8  	1_0_0_0   	1_0_0_0   	1.609  V    
O6   	Si2  	1_0_0_0   	1_0_1_0   	1.609  V    
O7   	Si6  	1_0_0_0   	1_0_0_0   	1.61   V    
O7   	Si2  	1_0_0_0   	1_0_0_0   	1.611  V    
O8   	Si3  	1_0_0_0   	1_0_0_0   	1.609  V    
O8   	Si12 	1_0_0_0   	2_1_1_-1  	1.611  V    
O9   	Si4  	1_0_0_0   	1_0_0_0   	1.61   V    
O9   	Si3  	1_0_0_0   	1_0_0_0   	1.611  V    
O10  	Si3  	1_0_0_0   	1_0_0_0   	1.609  V    
O10  	Si6  	1_0_0_0   	2_1_0_-1  	1.609  V    
O11  	Si4  	1_0_0_0   	1_0_0_0   	1.611  V    
O11  	Si7  	1_0_0_0   	2_1_1_-1  	1.609  V    
O12  	Si5  	1_0_0_0   	1_0_0_0   	1.61   V    
O12  	Si4  	1_0_0_0   	1_0_0_1   	1.609  V    
O13  	Si6  	1_0_0_0   	1_0_0_0   	1.609  V    
O13  	Si5  	1_0_0_0   	1_0_0_0   	1.611  V    
O14  	Si11 	1_0_0_0   	1_0_0_0   	1.611  V    
O14  	Si5  	1_0_0_0   	1_0_1_0   	1.611  V    
O15  	Si6  	1_0_0_0   	1_0_0_0   	1.609  V    
O15  	Si9  	1_0_0_0   	2_1_1_0   	1.609  V    
O16  	Si7  	1_0_0_0   	1_0_0_0   	1.609  V    
O16  	Si11 	1_0_0_0   	6_0_0_1   	1.611  V    
O17  	Si7  	1_0_0_0   	1_0_0_0   	1.61   V    
O17  	Si8  	1_0_0_0   	1_0_0_0   	1.61   V    
O18  	Si8  	1_0_0_0   	1_0_0_0   	1.611  V    
O18  	Si9  	1_0_0_0   	1_0_0_1   	1.612  V    
O19  	Si8  	1_0_0_0   	1_0_0_0   	1.609  V    
O19  	Si12 	1_0_0_0   	1_0_0_0   	1.611  V    
O20  	Si10 	1_0_0_0   	1_0_0_0   	1.608  V    
O20  	Si9  	1_0_0_0   	1_0_0_0   	1.61   V    
O21  	Si11 	1_0_0_0   	1_0_0_0   	1.61   V    
O21  	Si10 	1_0_0_0   	1_0_0_1   	1.609  V    
O22  	Si12 	1_0_0_0   	1_0_0_0   	1.609  V    
O22  	Si11 	1_0_0_0   	1_0_0_0   	1.61   V    
Si1  	O1   	1_0_0_0   	1_1_0_0   	1.611  V    
Si2  	O6   	1_0_0_0   	1_0_-1_0  	1.609  V    
Si3  	O5   	1_0_0_0   	1_0_0_-1  	1.61   V    
Si4  	O4   	1_0_0_0   	2_1_0_-1  	1.611  V    
Si4  	O12  	1_0_0_0   	1_0_0_-1  	1.609  V    
Si5  	O1   	1_0_0_0   	6_0_0_1   	1.608  V    
Si5  	O14  	1_0_0_0   	1_0_-1_0  	1.611  V    
Si6  	O10  	1_0_0_0   	2_1_0_0   	1.609  V    
Si7  	O23  	1_0_0_0   	1_0_0_0   	1.611  V    
Si7  	O11  	1_0_0_0   	2_1_1_0   	1.609  V    
Si9  	O24  	1_0_0_0   	1_0_0_0   	1.609  V    
Si9  	O15  	1_0_0_0   	2_1_1_-1  	1.609  V    
Si9  	O18  	1_0_0_0   	1_0_0_-1  	1.612  V    
Si10 	O25  	1_0_0_0   	1_0_0_0   	1.61   V    
Si10 	O3   	1_0_0_0   	2_1_1_-1  	1.61   V    
Si10 	O21  	1_0_0_0   	1_0_0_-1  	1.609  V    
Si11 	O16  	1_0_0_0   	6_-1_0_1  	1.611  V    
Si12 	O8   	1_0_0_0   	2_1_1_0   	1.611  V    
Si12 	O26  	1_0_0_0   	1_0_0_0   	1.609  V    
ZA3  	ZA3  	1_0_0_0   	5_2_0_1   	2.334  V    
ZA6  	ZA6  	1_0_0_0   	5_2_2_2   	3.193  V    
ZA6  	ZA10 	1_0_0_0   	1_1_0_1   	4.33   V    
O23  	Si7  	1_0_0_0   	7_0_1_0   	1.611  V    
O24  	Si9  	1_0_0_0   	7_0_1_0   	1.609  V    
O25  	Si10 	1_0_0_0   	7_0_1_0   	1.61   V    
O26  	Si12 	1_0_0_0   	7_0_1_0   	1.609  V    
ZA1  	ZA7  	1_0_0_0   	2_1_1_-1  	3.141  V    
ZA1  	ZA10 	1_0_0_0   	4_0_1_0   	4.285  V    
ZA2  	ZA9  	1_0_0_0   	1_0_0_0   	2.322  V    
ZA2  	ZA11 	1_0_0_0   	4_0_1_1   	2.456  V    
ZA10 	ZA1  	1_0_0_0   	4_-1_1_0  	4.285  V    
ZA10 	ZA6  	1_0_0_0   	1_-1_0_-1 	4.33   V    
ZA10 	ZA6  	1_0_0_0   	7_-1_1_-1 	4.33   V    
ZA10 	ZA8  	1_0_0_0   	3_0_0_1   	5.029  V    
ZA11 	ZA2  	1_0_0_0   	4_-1_1_1  	2.456  V    
ZA7  	ZA1  	1_0_0_0   	2_1_1_0   	3.141  V    
ZA7  	ZA8  	1_0_0_0   	4_0_0_1   	3.022  V    
ZA8  	ZA7  	1_0_0_0   	4_-1_0_1  	3.022  V    
ZA8  	ZA10 	1_0_0_0   	3_0_-1_1  	5.029  V    
