data_PSI-PPT1
_audit_creation_method             	Write2Cif_ToposPro  
_symmetry_space_group_name_H-M     	CMCA                
_symmetry_Int_Tables_number        	64                  
_symmetry_cell_setting             	orthorhombic system 
_cell_length_a                     	8.2281              
_cell_length_b                     	22.4563             
_cell_length_c                     	37.8911             
_cell_angle_alpha                  	90.0                
_cell_angle_beta                   	90.0                
_cell_angle_gamma                  	90.0                
loop_
_symmetry_equiv_pos_as_xyz
x,y,z
-x,-y+1/2,z+1/2
-x,y+1/2,-z+1/2
x,-y,-z
-x,-y,-z
x,y+1/2,-z+1/2
x,-y+1/2,z+1/2
-x,y,z
x+1/2,y+1/2,z
-x+1/2,-y,z+1/2
-x+1/2,y,-z+1/2
x+1/2,-y+1/2,-z
-x+1/2,-y+1/2,-z
x+1/2,y,-z+1/2
x+1/2,-y,z+1/2
-x+1/2,y+1/2,z
loop_
_atom_site_label
_atom_site_type_symbol
_atom_site_fract_x
_atom_site_fract_y
_atom_site_fract_z
O1        	O         	0.2573    	0.04249   	0.55262   
O2        	O         	0.20341   	0.13727   	0.51419   
O3        	O         	0.29032   	0.14921   	0.58077   
O4        	O         	0.24101   	0.11606   	0.64631   
O5        	O         	0.30277   	0.01152   	0.61844   
O6        	O         	0.20289   	0.01796   	0.68373   
O7        	O         	0.19835   	0.32971   	0.54927   
O8        	O         	0.21139   	0.22877   	0.62902   
O9        	O         	0.29115   	0.40957   	0.79757   
O10       	O         	0.21729   	0.3012    	0.81807   
O11       	O         	0.26166   	0.34279   	0.61717   
O12       	O         	0.30192   	0.43235   	0.57301   
Si1       	Si        	0.18785   	0.10953   	0.55324   
Si2       	Si        	0.18596   	0.04728   	0.64514   
Si3       	Si        	0.18615   	0.31635   	0.50761   
Si4       	Si        	0.31086   	0.16837   	0.62148   
Si5       	Si        	0.18972   	0.35048   	0.78778   
Si6       	Si        	0.18801   	0.47949   	0.71065   
Si7       	Si        	0.18986   	0.2949    	0.64468   
Si8       	Si        	0.31497   	0.36127   	0.5778    
Si9       	Si        	0.18514   	0.4892    	0.57814   
O13       	O         	0.0       	0.10858   	0.56507   
O14       	O         	0.0       	0.04271   	0.63218   
O15       	O         	0.0       	0.32236   	0.49502   
O16       	O         	0.0       	0.36739   	0.78544   
O17       	O         	0.0       	0.49813   	0.7067    
O18       	O         	0.0       	0.30858   	0.65085   
O19       	O         	0.0       	0.47142   	0.56929   
ZA2       	ZA        	0.0       	0.07859   	0.5995    
ZA4       	ZA        	0.0       	0.15502   	0.61614   
ZA5       	ZA        	0.0       	0.23901   	0.5662    
ZA6       	ZA        	0.0       	0.18707   	0.49386   
ZA8       	ZA        	0.0       	0.00182   	0.58858   
ZA12      	ZA        	0.0       	0.96418   	0.71434   
ZA13      	ZA        	0.0       	0.92044   	0.64477   
ZA14      	ZA        	0.0       	0.1681    	0.75      
ZA17      	ZA        	0.0       	0.36543   	0.57706   
ZA19      	ZA        	0.0       	0.36884   	0.71383   
O20       	O         	0.25      	0.25      	0.5       
O21       	O         	0.5       	0.179     	0.63026   
O22       	O         	0.5       	0.3408    	0.5711    
ZA1       	ZA        	0.5       	0.07859   	0.5995    
ZA3       	ZA        	0.5       	0.41499   	0.75      
ZA9       	ZA        	0.5       	0.11269   	0.56131   
ZA10      	ZA        	0.5       	0.23901   	0.5662    
ZA15      	ZA        	0.5       	0.92044   	0.64477   
ZA16      	ZA        	0.5       	0.04609   	0.63885   
ZA18      	ZA        	0.5       	0.29375   	0.63905   
O23       	O         	0.25      	0.32603   	0.75      
O24       	O         	0.25      	0.49372   	0.75      
ZA7       	ZA        	0.0       	0.0       	0.5       
ZA11      	ZA        	0.5       	0.0       	0.5       
loop_
_topos_bond_atom_site_label_1
_topos_bond_atom_site_label_2
_topos_bond_site_symmetry_1
_topos_bond_site_symmetry_2
_topos_bond_distance
_topos_bond_type
O1   	Si1  	1_0_0_0   	1_0_0_0   	1.61   V    
O1   	Si9  	1_0_0_0   	16_0_-1_0 	1.61   V    
O2   	Si1  	1_0_0_0   	1_0_0_0   	1.611  V    
O2   	Si3  	1_0_0_0   	13_0_0_1  	1.61   V    
O3   	Si1  	1_0_0_0   	1_0_0_0   	1.61   V    
O3   	Si4  	1_0_0_0   	1_0_0_0   	1.61   V    
O4   	Si2  	1_0_0_0   	1_0_0_0   	1.61   V    
O4   	Si4  	1_0_0_0   	1_0_0_0   	1.611  V    
O5   	Si2  	1_0_0_0   	1_0_0_0   	1.61   V    
O5   	Si9  	1_0_0_0   	16_0_-1_0 	1.61   V    
O6   	Si2  	1_0_0_0   	1_0_0_0   	1.61   V    
O6   	Si6  	1_0_0_0   	16_0_-1_0 	1.61   V    
O7   	Si8  	1_0_0_0   	1_0_0_0   	1.61   V    
O7   	Si3  	1_0_0_0   	1_0_0_0   	1.61   V    
O8   	Si7  	1_0_0_0   	1_0_0_0   	1.609  V    
O8   	Si4  	1_0_0_0   	1_0_0_0   	1.61   V    
O9   	Si5  	1_0_0_0   	1_0_0_0   	1.611  V    
O9   	Si6  	1_0_0_0   	11_0_0_1  	1.61   V    
O10  	Si5  	1_0_0_0   	1_0_0_0   	1.61   V    
O10  	Si7  	1_0_0_0   	11_0_0_1  	1.611  V    
O11  	Si8  	1_0_0_0   	1_0_0_0   	1.609  V    
O11  	Si7  	1_0_0_0   	1_0_0_0   	1.61   V    
O12  	Si9  	1_0_0_0   	1_0_0_0   	1.61   V    
O12  	Si8  	1_0_0_0   	1_0_0_0   	1.61   V    
Si1  	O13  	1_0_0_0   	1_0_0_0   	1.609  V    
Si2  	O14  	1_0_0_0   	1_0_0_0   	1.61   V    
Si3  	O20  	1_0_0_0   	1_0_0_0   	1.606  V    
Si3  	O2   	1_0_0_0   	13_0_0_1  	1.61   V    
Si3  	O15  	1_0_0_0   	1_0_0_0   	1.61   V    
Si4  	O21  	1_0_0_0   	1_0_0_0   	1.609  V    
Si5  	O23  	1_0_0_0   	1_0_0_0   	1.611  V    
Si5  	O16  	1_0_0_0   	1_0_0_0   	1.609  V    
Si6  	O24  	1_0_0_0   	1_0_0_0   	1.608  V    
Si6  	O6   	1_0_0_0   	16_0_0_0  	1.61   V    
Si6  	O9   	1_0_0_0   	11_0_0_1  	1.61   V    
Si6  	O17  	1_0_0_0   	1_0_0_0   	1.61   V    
Si7  	O10  	1_0_0_0   	11_0_0_1  	1.611  V    
Si7  	O18  	1_0_0_0   	1_0_0_0   	1.609  V    
Si8  	O22  	1_0_0_0   	1_0_0_0   	1.61   V    
Si9  	O19  	1_0_0_0   	1_0_0_0   	1.61   V    
Si9  	O1   	1_0_0_0   	16_0_0_0  	1.61   V    
Si9  	O5   	1_0_0_0   	16_0_0_0  	1.61   V    
O13  	Si1  	1_0_0_0   	8_0_0_0   	1.609  V    
O14  	Si2  	1_0_0_0   	8_0_0_0   	1.61   V    
O15  	Si3  	1_0_0_0   	8_0_0_0   	1.61   V    
O16  	Si5  	1_0_0_0   	8_0_0_0   	1.609  V    
O17  	Si6  	1_0_0_0   	8_0_0_0   	1.61   V    
O18  	Si7  	1_0_0_0   	8_0_0_0   	1.609  V    
O19  	Si9  	1_0_0_0   	8_0_0_0   	1.61   V    
ZA2  	ZA4  	1_0_0_0   	1_0_0_0   	1.828  V    
ZA2  	ZA8  	1_0_0_0   	1_0_0_0   	1.773  V    
ZA4  	ZA5  	1_0_0_0   	1_0_0_0   	2.672  V    
ZA5  	ZA17 	1_0_0_0   	1_0_0_0   	2.869  V    
ZA5  	ZA6  	1_0_0_0   	1_0_0_0   	2.979  V    
ZA6  	ZA10 	1_0_0_0   	12_-1_0_1 	2.817  V    
ZA8  	ZA13 	1_0_0_0   	1_0_-1_0  	2.806  V    
ZA12 	ZA13 	1_0_0_0   	1_0_0_0   	2.813  V    
ZA12 	ZA3  	1_0_0_0   	9_-1_0_0  	1.745  V    
ZA13 	ZA8  	1_0_0_0   	1_0_1_0   	2.806  V    
ZA13 	ZA18 	1_0_0_0   	9_-1_0_0  	2.853  V    
ZA14 	ZA14 	1_0_0_0   	11_0_0_1  	4.114  V    
ZA14 	ZA14 	1_0_0_0   	11_-1_0_1 	4.114  V    
ZA17 	ZA15 	1_0_0_0   	9_-1_-1_0 	2.848  V    
ZA19 	ZA3  	1_0_0_0   	11_0_0_1  	1.718  V    
ZA19 	ZA15 	1_0_0_0   	9_-1_-1_0 	2.862  V    
O20  	Si3  	1_0_0_0   	13_0_0_1  	1.606  V    
O21  	Si4  	1_0_0_0   	8_1_0_0   	1.609  V    
O22  	Si8  	1_0_0_0   	8_1_0_0   	1.61   V    
ZA1  	ZA16 	1_0_0_0   	1_0_0_0   	1.66   V    
ZA1  	ZA9  	1_0_0_0   	1_0_0_0   	1.637  V    
ZA3  	ZA12 	1_0_0_0   	9_0_-1_0  	1.745  V    
ZA3  	ZA19 	1_0_0_0   	11_0_0_1  	1.718  V    
ZA9  	ZA10 	1_0_0_0   	1_0_0_0   	2.843  V    
ZA10 	ZA6  	1_0_0_0   	12_0_0_1  	2.817  V    
ZA15 	ZA17 	1_0_0_0   	9_0_0_0   	2.848  V    
ZA15 	ZA19 	1_0_0_0   	9_0_0_0   	2.862  V    
ZA15 	ZA16 	1_0_0_0   	1_0_1_0   	2.831  V    
ZA16 	ZA15 	1_0_0_0   	1_0_-1_0  	2.831  V    
ZA18 	ZA13 	1_0_0_0   	9_0_-1_0  	2.853  V    
O23  	Si5  	1_0_0_0   	11_0_0_1  	1.611  V    
O24  	Si6  	1_0_0_0   	11_0_0_1  	1.608  V    
ZA7  	ZA11 	1_0_0_0   	1_0_0_0   	4.114  V    
ZA7  	ZA11 	1_0_0_0   	1_-1_0_0  	4.114  V    
ZA11 	ZA7  	1_0_0_0   	1_1_0_0   	4.114  V    
