data_UOV-NT
_audit_creation_method             	Write2Cif_ToposPro  
_symmetry_space_group_name_H-M     	AMM2                
_symmetry_Int_Tables_number        	38                  
_symmetry_cell_setting             	orthorhombic system 
_cell_length_a                     	12.7177             
_cell_length_b                     	21.9893             
_cell_length_c                     	38.7639             
_cell_angle_alpha                  	90.0                
_cell_angle_beta                   	90.0                
_cell_angle_gamma                  	90.0                
loop_
_symmetry_equiv_pos_as_xyz
x,y,z
-x,-y,z
x,-y,z
-x,y,z
x,y+1/2,z+1/2
-x,-y+1/2,z+1/2
x,-y+1/2,z+1/2
-x,y+1/2,z+1/2
loop_
_atom_site_label
_atom_site_type_symbol
_atom_site_fract_x
_atom_site_fract_y
_atom_site_fract_z
O1        	O         	0.17169   	0.32645   	0.80187   
O2        	O         	0.1035    	0.40757   	0.84579   
O3        	O         	0.30524   	0.38544   	0.8414    
O4        	O         	0.17753   	0.30359   	0.86875   
O5        	O         	0.30648   	0.38616   	0.96608   
O6        	O         	0.10363   	0.40865   	0.96315   
O7        	O         	0.17449   	0.32354   	0.00413   
O8        	O         	0.17861   	0.30783   	0.93652   
O9        	O         	0.37076   	0.41266   	0.90343   
O10       	O         	0.14166   	0.20503   	0.90546   
O11       	O         	0.18342   	0.20898   	0.79429   
O12       	O         	0.13742   	0.27839   	0.74061   
O13       	O         	0.11876   	0.2763    	0.06384   
O14       	O         	0.18483   	0.20598   	0.0139    
O15       	O         	0.1367    	0.08592   	0.90099   
O16       	O         	0.19702   	0.13692   	0.95907   
O17       	O         	0.18807   	0.11572   	0.83756   
O18       	O         	0.10366   	0.10367   	0.77614   
O19       	O         	0.30847   	0.11652   	0.78289   
O20       	O         	0.18592   	0.20365   	0.69039   
O21       	O         	0.16968   	0.32088   	0.67803   
O22       	O         	0.30903   	0.1122    	0.01435   
O23       	O         	0.10334   	0.09608   	0.01555   
O24       	O         	0.18174   	0.19793   	0.11146   
O25       	O         	0.18012   	0.31486   	0.12389   
O26       	O         	0.37463   	0.08245   	0.72174   
O27       	O         	0.30659   	0.11776   	0.6617    
O28       	O         	0.10341   	0.103     	0.66538   
O29       	O         	0.30428   	0.38541   	0.64069   
O30       	O         	0.10289   	0.40395   	0.63411   
O31       	O         	0.36774   	0.08874   	0.0786    
Si1       	Si        	0.19001   	0.35523   	0.8396    
Si2       	Si        	0.19102   	0.35623   	0.96737   
Si3       	Si        	0.37979   	0.43039   	0.86324   
Si4       	Si        	0.12371   	0.27744   	0.9033    
Si5       	Si        	0.12285   	0.26918   	0.78151   
Si6       	Si        	0.37977   	0.4307    	0.94355   
Si7       	Si        	0.11908   	0.26648   	0.02272   
Si8       	Si        	0.11973   	0.14307   	0.92637   
Si9       	Si        	0.19547   	0.1364    	0.79779   
Si10      	Si        	0.12295   	0.26494   	0.70006   
Si11      	Si        	0.19764   	0.13707   	0.0006    
Si12      	Si        	0.11961   	0.26052   	0.10436   
Si13      	Si        	0.12221   	0.06862   	0.86091   
Si14      	Si        	0.38016   	0.06827   	0.76241   
Si15      	Si        	0.19531   	0.1526    	0.66077   
Si16      	Si        	0.19086   	0.35282   	0.64129   
Si17      	Si        	0.37886   	0.06903   	0.03879   
Si18      	Si        	0.38016   	0.06883   	0.68099   
Si19      	Si        	0.37926   	0.42986   	0.61861   
ZA23      	ZA        	0.17461   	0.13736   	0.72822   
ZA24      	ZA        	0.17316   	0.13707   	0.07197   
O32       	O         	0.0       	0.29268   	0.90321   
O33       	O         	0.0       	0.26308   	0.79079   
O34       	O         	0.0       	0.25958   	0.00917   
O35       	O         	0.0       	0.14317   	0.93989   
O36       	O         	0.0       	0.25645   	0.69143   
O37       	O         	0.0       	0.25554   	0.11776   
O38       	O         	0.0       	0.07347   	0.8505    
O39       	O         	0.0       	0.39604   	0.90438   
O40       	O         	0.0       	0.0701    	0.72109   
O41       	O         	0.0       	0.09814   	0.07469   
Si20      	Si        	0.0       	0.42746   	0.86681   
Si21      	Si        	0.0       	0.42757   	0.94192   
Si22      	Si        	0.0       	0.06933   	0.76258   
Si23      	Si        	0.0       	0.07307   	0.03564   
Si24      	Si        	0.0       	0.06931   	0.67963   
Si25      	Si        	0.0       	0.42694   	0.61374   
ZA5       	ZA        	0.0       	0.23844   	0.96819   
ZA6       	ZA        	0.0       	0.21405   	0.84631   
ZA7       	ZA        	0.0       	0.17849   	0.73225   
ZA10      	ZA        	0.0       	0.17686   	0.06873   
ZA14      	ZA        	0.0       	0.25159   	0.65063   
ZA20      	ZA        	0.0       	0.3541    	0.90366   
O42       	O         	0.34405   	0.5       	0.85782   
O43       	O         	0.34209   	0.5       	0.94878   
O44       	O         	0.34618   	0.5       	0.62375   
ZA4       	ZA        	0.18061   	0.5       	0.90368   
ZA21      	ZA        	0.17322   	0.5       	0.74061   
ZA22      	ZA        	0.17312   	0.5       	0.06266   
O45       	O         	0.5       	0.42252   	0.85095   
O46       	O         	0.5       	0.42395   	0.95597   
O47       	O         	0.5       	0.07434   	0.77537   
O48       	O         	0.5       	0.07352   	0.02706   
O49       	O         	0.5       	0.07674   	0.66827   
O50       	O         	0.5       	0.42099   	0.63016   
ZA13      	ZA        	0.5       	0.25142   	0.65101   
O51       	O         	0.16204   	0.0       	0.8545    
O52       	O         	0.33959   	0.0       	0.76946   
O53       	O         	0.33878   	0.0       	0.03444   
O54       	O         	0.34277   	0.0       	0.6737    
ZA17      	ZA        	0.19185   	0.0       	0.72403   
ZA19      	ZA        	0.1911    	0.0       	0.07478   
ZA25      	ZA        	0.17446   	0.0       	0.79592   
ZA26      	ZA        	0.16369   	0.0       	0.97246   
O55       	O         	0.0       	0.5       	0.87191   
O56       	O         	0.0       	0.5       	0.93637   
O57       	O         	0.0       	0.5       	0.613     
ZA8       	ZA        	0.0       	0.5       	0.74055   
ZA11      	ZA        	0.0       	0.5       	0.0632    
O58       	O         	0.0       	0.0       	0.77595   
O59       	O         	0.0       	0.0       	0.03638   
O60       	O         	0.0       	0.0       	0.66622   
ZA12      	ZA        	0.0       	0.0       	0.94449   
ZA15      	ZA        	0.0       	0.0       	0.816     
ZA1       	ZA        	0.5       	0.5       	0.90339   
ZA2       	ZA        	0.5       	0.5       	0.73463   
ZA9       	ZA        	0.5       	0.5       	0.0679    
ZA3       	ZA        	0.5       	0.0       	0.90063   
ZA16      	ZA        	0.5       	0.0       	0.7217    
ZA18      	ZA        	0.5       	0.0       	0.0787    
loop_
_topos_bond_atom_site_label_1
_topos_bond_atom_site_label_2
_topos_bond_site_symmetry_1
_topos_bond_site_symmetry_2
_topos_bond_distance
_topos_bond_type
O1   	Si1  	1_0_0_0   	1_0_0_0   	1.611  V    
O1   	Si5  	1_0_0_0   	1_0_0_0   	1.611  V    
O2   	Si20 	1_0_0_0   	1_0_0_0   	1.609  V    
O2   	Si1  	1_0_0_0   	1_0_0_0   	1.61   V    
O3   	Si3  	1_0_0_0   	1_0_0_0   	1.61   V    
O3   	Si1  	1_0_0_0   	1_0_0_0   	1.611  V    
O4   	Si1  	1_0_0_0   	1_0_0_0   	1.61   V    
O4   	Si4  	1_0_0_0   	1_0_0_0   	1.61   V    
O5   	Si6  	1_0_0_0   	1_0_0_0   	1.61   V    
O5   	Si2  	1_0_0_0   	1_0_0_0   	1.61   V    
O6   	Si21 	1_0_0_0   	1_0_0_0   	1.609  V    
O6   	Si2  	1_0_0_0   	1_0_0_0   	1.61   V    
O7   	Si7  	1_0_0_0   	1_0_0_0   	1.609  V    
O7   	Si2  	1_0_0_0   	1_0_0_-1  	1.61   V    
O8   	Si2  	1_0_0_0   	1_0_0_0   	1.609  V    
O8   	Si4  	1_0_0_0   	1_0_0_0   	1.61   V    
O9   	Si6  	1_0_0_0   	1_0_0_0   	1.609  V    
O9   	Si3  	1_0_0_0   	1_0_0_0   	1.61   V    
O10  	Si8  	1_0_0_0   	1_0_0_0   	1.61   V    
O10  	Si4  	1_0_0_0   	1_0_0_0   	1.611  V    
O11  	Si9  	1_0_0_0   	1_0_0_0   	1.609  V    
O11  	Si5  	1_0_0_0   	1_0_0_0   	1.61   V    
O12  	Si5  	1_0_0_0   	1_0_0_0   	1.609  V    
O12  	Si10 	1_0_0_0   	1_0_0_0   	1.61   V    
O13  	Si7  	1_0_0_0   	1_0_0_0   	1.609  V    
O13  	Si12 	1_0_0_0   	1_0_0_0   	1.609  V    
O14  	Si7  	1_0_0_0   	1_0_0_0   	1.608  V    
O14  	Si11 	1_0_0_0   	1_0_0_0   	1.609  V    
O15  	Si13 	1_0_0_0   	1_0_0_0   	1.61   V    
O15  	Si8  	1_0_0_0   	1_0_0_0   	1.611  V    
O16  	Si8  	1_0_0_0   	1_0_0_0   	1.61   V    
O16  	Si11 	1_0_0_0   	1_0_0_1   	1.61   V    
O17  	Si9  	1_0_0_0   	1_0_0_0   	1.61   V    
O17  	Si13 	1_0_0_0   	1_0_0_0   	1.61   V    
O18  	Si22 	1_0_0_0   	1_0_0_0   	1.608  V    
O18  	Si9  	1_0_0_0   	1_0_0_0   	1.608  V    
O19  	Si14 	1_0_0_0   	1_0_0_0   	1.608  V    
O19  	Si9  	1_0_0_0   	1_0_0_0   	1.609  V    
O20  	Si15 	1_0_0_0   	1_0_0_0   	1.61   V    
O20  	Si10 	1_0_0_0   	1_0_0_0   	1.612  V    
O21  	Si16 	1_0_0_0   	1_0_0_0   	1.611  V    
O21  	Si10 	1_0_0_0   	1_0_0_0   	1.611  V    
O22  	Si17 	1_0_0_0   	1_0_0_0   	1.609  V    
O22  	Si11 	1_0_0_0   	1_0_0_0   	1.609  V    
O23  	Si11 	1_0_0_0   	1_0_0_0   	1.608  V    
O23  	Si23 	1_0_0_0   	1_0_0_0   	1.609  V    
O24  	Si12 	1_0_0_0   	1_0_0_0   	1.611  V    
O24  	Si16 	1_0_0_0   	7_0_0_-1  	1.611  V    
O25  	Si12 	1_0_0_0   	1_0_0_0   	1.61   V    
O25  	Si15 	1_0_0_0   	7_0_0_-1  	1.61   V    
O26  	Si14 	1_0_0_0   	1_0_0_0   	1.609  V    
O26  	Si18 	1_0_0_0   	1_0_0_0   	1.609  V    
O27  	Si15 	1_0_0_0   	1_0_0_0   	1.61   V    
O27  	Si18 	1_0_0_0   	1_0_0_0   	1.61   V    
O28  	Si24 	1_0_0_0   	1_0_0_0   	1.607  V    
O28  	Si15 	1_0_0_0   	1_0_0_0   	1.609  V    
O29  	Si16 	1_0_0_0   	1_0_0_0   	1.611  V    
O29  	Si19 	1_0_0_0   	1_0_0_0   	1.612  V    
O30  	Si25 	1_0_0_0   	1_0_0_0   	1.61   V    
O30  	Si16 	1_0_0_0   	1_0_0_0   	1.61   V    
O31  	Si17 	1_0_0_0   	1_0_0_0   	1.609  V    
O31  	Si19 	1_0_0_0   	7_0_0_-1  	1.611  V    
Si2  	O7   	1_0_0_0   	1_0_0_1   	1.61   V    
Si3  	O45  	1_0_0_0   	1_0_0_0   	1.611  V    
Si3  	O42  	1_0_0_0   	1_0_0_0   	1.61   V    
Si4  	O32  	1_0_0_0   	1_0_0_0   	1.609  V    
Si5  	O33  	1_0_0_0   	1_0_0_0   	1.609  V    
Si6  	O46  	1_0_0_0   	1_0_0_0   	1.61   V    
Si6  	O43  	1_0_0_0   	1_0_0_0   	1.61   V    
Si7  	O34  	1_0_0_0   	1_0_0_0   	1.61   V    
Si8  	O35  	1_0_0_0   	1_0_0_0   	1.61   V    
Si10 	O36  	1_0_0_0   	1_0_0_0   	1.61   V    
Si11 	O16  	1_0_0_0   	1_0_0_-1  	1.61   V    
Si12 	O37  	1_0_0_0   	1_0_0_0   	1.611  V    
Si13 	O38  	1_0_0_0   	1_0_0_0   	1.609  V    
Si13 	O51  	1_0_0_0   	1_0_0_0   	1.611  V    
Si14 	O47  	1_0_0_0   	1_0_0_0   	1.61   V    
Si14 	O52  	1_0_0_0   	1_0_0_0   	1.611  V    
Si15 	O25  	1_0_0_0   	7_0_0_0   	1.61   V    
Si16 	O24  	1_0_0_0   	7_0_0_0   	1.611  V    
Si17 	O48  	1_0_0_0   	1_0_0_0   	1.609  V    
Si17 	O53  	1_0_0_0   	1_0_0_0   	1.61   V    
Si18 	O49  	1_0_0_0   	1_0_0_0   	1.611  V    
Si18 	O54  	1_0_0_0   	1_0_0_0   	1.611  V    
Si19 	O44  	1_0_0_0   	1_0_0_0   	1.611  V    
Si19 	O31  	1_0_0_0   	7_0_0_0   	1.611  V    
Si19 	O50  	1_0_0_0   	1_0_0_0   	1.611  V    
ZA23 	ZA7  	1_0_0_0   	1_0_0_0   	2.403  V    
ZA24 	ZA10 	1_0_0_0   	1_0_0_0   	2.373  V    
O32  	Si4  	1_0_0_0   	4_0_0_0   	1.609  V    
O33  	Si5  	1_0_0_0   	4_0_0_0   	1.609  V    
O34  	Si7  	1_0_0_0   	4_0_0_0   	1.61   V    
O35  	Si8  	1_0_0_0   	4_0_0_0   	1.61   V    
O36  	Si10 	1_0_0_0   	4_0_0_0   	1.61   V    
O37  	Si12 	1_0_0_0   	4_0_0_0   	1.611  V    
O38  	Si13 	1_0_0_0   	4_0_0_0   	1.609  V    
O39  	Si21 	1_0_0_0   	1_0_0_0   	1.612  V    
O39  	Si20 	1_0_0_0   	1_0_0_0   	1.612  V    
O40  	Si24 	1_0_0_0   	1_0_0_0   	1.607  V    
O40  	Si22 	1_0_0_0   	1_0_0_0   	1.608  V    
O41  	Si23 	1_0_0_0   	1_0_0_0   	1.611  V    
O41  	Si25 	1_0_0_0   	6_0_0_-1  	1.611  V    
Si20 	O2   	1_0_0_0   	4_0_0_0   	1.609  V    
Si20 	O55  	1_0_0_0   	1_0_0_0   	1.607  V    
Si21 	O6   	1_0_0_0   	4_0_0_0   	1.609  V    
Si21 	O56  	1_0_0_0   	1_0_0_0   	1.607  V    
Si22 	O18  	1_0_0_0   	4_0_0_0   	1.608  V    
Si22 	O58  	1_0_0_0   	1_0_0_0   	1.61   V    
Si23 	O23  	1_0_0_0   	4_0_0_0   	1.609  V    
Si23 	O59  	1_0_0_0   	1_0_0_0   	1.607  V    
Si24 	O28  	1_0_0_0   	4_0_0_0   	1.607  V    
Si24 	O60  	1_0_0_0   	1_0_0_0   	1.61   V    
Si25 	O30  	1_0_0_0   	4_0_0_0   	1.61   V    
Si25 	O57  	1_0_0_0   	1_0_0_0   	1.607  V    
Si25 	O41  	1_0_0_0   	6_0_0_0   	1.611  V    
ZA7  	ZA23 	1_0_0_0   	4_0_0_0   	2.403  V    
ZA10 	ZA24 	1_0_0_0   	4_0_0_0   	2.373  V    
O42  	Si3  	1_0_0_0   	3_0_1_0   	1.61   V    
O43  	Si6  	1_0_0_0   	3_0_1_0   	1.61   V    
O44  	Si19 	1_0_0_0   	3_0_1_0   	1.611  V    
ZA21 	ZA2  	1_0_0_0   	1_0_0_0   	4.162  V    
ZA21 	ZA8  	1_0_0_0   	1_0_0_0   	2.203  V    
ZA22 	ZA9  	1_0_0_0   	1_0_0_0   	4.162  V    
ZA22 	ZA11 	1_0_0_0   	1_0_0_0   	2.202  V    
O45  	Si3  	1_0_0_0   	4_1_0_0   	1.611  V    
O46  	Si6  	1_0_0_0   	4_1_0_0   	1.61   V    
O47  	Si14 	1_0_0_0   	4_1_0_0   	1.61   V    
O48  	Si17 	1_0_0_0   	4_1_0_0   	1.609  V    
O49  	Si18 	1_0_0_0   	4_1_0_0   	1.611  V    
O50  	Si19 	1_0_0_0   	4_1_0_0   	1.611  V    
ZA13 	ZA2  	1_0_0_0   	1_0_0_0   	6.355  V    
ZA13 	ZA9  	1_0_0_0   	5_0_-1_0  	6.399  V    
O51  	Si13 	1_0_0_0   	3_0_0_0   	1.611  V    
O52  	Si14 	1_0_0_0   	3_0_0_0   	1.611  V    
O53  	Si17 	1_0_0_0   	3_0_0_0   	1.61   V    
O54  	Si18 	1_0_0_0   	3_0_0_0   	1.611  V    
ZA17 	ZA25 	1_0_0_0   	1_0_0_0   	2.795  V    
ZA25 	ZA15 	1_0_0_0   	1_0_0_0   	2.351  V    
ZA26 	ZA3  	1_0_0_0   	1_0_0_0   	5.104  V    
ZA26 	ZA12 	1_0_0_0   	1_0_0_0   	2.347  V    
O55  	Si20 	1_0_0_0   	2_0_1_0   	1.607  V    
O56  	Si21 	1_0_0_0   	2_0_1_0   	1.607  V    
O57  	Si25 	1_0_0_0   	2_0_1_0   	1.607  V    
ZA8  	ZA21 	1_0_0_0   	2_0_1_0   	2.203  V    
ZA11 	ZA22 	1_0_0_0   	2_0_1_0   	2.202  V    
O58  	Si22 	1_0_0_0   	2_0_0_0   	1.61   V    
O59  	Si23 	1_0_0_0   	2_0_0_0   	1.607  V    
O60  	Si24 	1_0_0_0   	2_0_0_0   	1.61   V    
ZA12 	ZA26 	1_0_0_0   	2_0_0_0   	2.347  V    
ZA15 	ZA25 	1_0_0_0   	2_0_0_0   	2.351  V    
ZA2  	ZA13 	1_0_0_0   	2_1_1_0   	6.355  V    
ZA2  	ZA3  	1_0_0_0   	1_0_1_0   	12.739 V    
ZA2  	ZA21 	1_0_0_0   	2_1_1_0   	4.162  V    
ZA9  	ZA3  	1_0_0_0   	1_0_0_-1  	12.764 V    
ZA9  	ZA3  	1_0_0_0   	1_0_1_-1  	12.764 V    
ZA9  	ZA22 	1_0_0_0   	2_1_1_0   	4.162  V    
ZA9  	ZA13 	1_0_0_0   	5_0_0_-1  	6.399  V    
ZA9  	ZA13 	1_0_0_0   	6_1_0_-1  	6.399  V    
ZA3  	ZA2  	1_0_0_0   	1_0_-1_0  	12.739 V    
ZA3  	ZA9  	1_0_0_0   	1_0_0_1   	12.764 V    
ZA3  	ZA9  	1_0_0_0   	1_0_-1_1  	12.764 V    
ZA3  	ZA26 	1_0_0_0   	2_1_0_0   	5.104  V    
